/*---------------------------------------------------------------------------*\
  =========                 |
  \\      /  F ield         | OpenFOAM: The Open Source CFD Toolbox
   \\    /   O peration     | Website:  https://openfoam.org
    \\  /    A nd           | Version:  7
     \\/     M anipulation  |
\*---------------------------------------------------------------------------*/
Build  : 7
Exec   : icoFoam
Date   : Apr 05 2024
Time   : 12:21:28
Host   : "c201-029.frontera.tacc.utexas.edu"
PID    : 159259
I/O    : uncollated
Case   : /work2/09043/kjm24/frontera/COE347/FinalProj
nProcs : 1
sigFpe : Enabling floating point exception trapping (FOAM_SIGFPE).
fileModificationChecking : Monitoring run-time modified files using timeStampMaster (fileModificationSkew 10)
allowSystemOperations : Allowing user-supplied system call operations

// * * * * * * * * * * * * * * * * * * * * * * * * * * * * * * * * * * * * * //
Create time

Create mesh for time = 0

Reading transportProperties

Reading field p

Reading field U

Reading/calculating face flux field phi


Starting time loop

--> FOAM Warning : 
    From function void Foam::probes::findElements(const Foam::fvMesh &)
    in file probes/probes.C at line 119
    Did not find location (5.5 -0.5 0) in any cell. Skipping location.
--> FOAM Warning : 
    From function void Foam::probes::findElements(const Foam::fvMesh &)
    in file probes/probes.C at line 119
    Did not find location (5.5 0.5 0) in any cell. Skipping location.
--> FOAM Warning : 
    From function void Foam::sampledSets::combineSampledSets(Foam::PtrList<Foam::coordSet> &, Foam::List<Foam::List<int>> &)
    in file sampledSet/sampledSets/sampledSets.C at line 115
    Sample set line25 has zero points.
--> FOAM Warning : 
    From function void Foam::sampledSets::combineSampledSets(Foam::PtrList<Foam::coordSet> &, Foam::List<Foam::List<int>> &)
    in file sampledSet/sampledSets/sampledSets.C at line 115
    Sample set line27 has zero points.
--> FOAM Warning : 
    From function void Foam::sampledSets::combineSampledSets(Foam::PtrList<Foam::coordSet> &, Foam::List<Foam::List<int>> &)
    in file sampledSet/sampledSets/sampledSets.C at line 115
    Sample set line29 has zero points.
--> FOAM Warning : 
    From function void Foam::sampledSets::combineSampledSets(Foam::PtrList<Foam::coordSet> &, Foam::List<Foam::List<int>> &)
    in file sampledSet/sampledSets/sampledSets.C at line 115
    Sample set line31 has zero points.
--> FOAM Warning : 
    From function void Foam::sampledSets::combineSampledSets(Foam::PtrList<Foam::coordSet> &, Foam::List<Foam::List<int>> &)
    in file sampledSet/sampledSets/sampledSets.C at line 115
    Sample set line32 has zero points.
--> FOAM Warning : 
    From function void Foam::sampledSets::combineSampledSets(Foam::PtrList<Foam::coordSet> &, Foam::List<Foam::List<int>> &)
    in file sampledSet/sampledSets/sampledSets.C at line 115
    Sample set line33 has zero points.
--> FOAM Warning : 
    From function void Foam::sampledSets::combineSampledSets(Foam::PtrList<Foam::coordSet> &, Foam::List<Foam::List<int>> &)
    in file sampledSet/sampledSets/sampledSets.C at line 115
    Sample set line34 has zero points.
--> FOAM Warning : 
    From function void Foam::sampledSets::combineSampledSets(Foam::PtrList<Foam::coordSet> &, Foam::List<Foam::List<int>> &)
    in file sampledSet/sampledSets/sampledSets.C at line 115
    Sample set line35 has zero points.
--> FOAM Warning : 
    From function void Foam::sampledSets::combineSampledSets(Foam::PtrList<Foam::coordSet> &, Foam::List<Foam::List<int>> &)
    in file sampledSet/sampledSets/sampledSets.C at line 115
    Sample set line36 has zero points.
--> FOAM Warning : 
    From function void Foam::sampledSets::combineSampledSets(Foam::PtrList<Foam::coordSet> &, Foam::List<Foam::List<int>> &)
    in file sampledSet/sampledSets/sampledSets.C at line 115
    Sample set line37 has zero points.
--> FOAM Warning : 
    From function void Foam::sampledSets::combineSampledSets(Foam::PtrList<Foam::coordSet> &, Foam::List<Foam::List<int>> &)
    in file sampledSet/sampledSets/sampledSets.C at line 115
    Sample set line38 has zero points.
--> FOAM Warning : 
    From function void Foam::sampledSets::combineSampledSets(Foam::PtrList<Foam::coordSet> &, Foam::List<Foam::List<int>> &)
    in file sampledSet/sampledSets/sampledSets.C at line 115
    Sample set line39 has zero points.
--> FOAM Warning : 
    From function void Foam::sampledSets::combineSampledSets(Foam::PtrList<Foam::coordSet> &, Foam::List<Foam::List<int>> &)
    in file sampledSet/sampledSets/sampledSets.C at line 115
    Sample set line40 has zero points.
--> FOAM Warning : 
    From function void Foam::sampledSets::combineSampledSets(Foam::PtrList<Foam::coordSet> &, Foam::List<Foam::List<int>> &)
    in file sampledSet/sampledSets/sampledSets.C at line 115
    Sample set line41 has zero points.
--> FOAM Warning : 
    From function void Foam::sampledSets::combineSampledSets(Foam::PtrList<Foam::coordSet> &, Foam::List<Foam::List<int>> &)
    in file sampledSet/sampledSets/sampledSets.C at line 115
    Sample set line42 has zero points.
--> FOAM Warning : 
    From function void Foam::sampledSets::combineSampledSets(Foam::PtrList<Foam::coordSet> &, Foam::List<Foam::List<int>> &)
    in file sampledSet/sampledSets/sampledSets.C at line 115
    Sample set line43 has zero points.
--> FOAM Warning : 
    From function void Foam::sampledSets::combineSampledSets(Foam::PtrList<Foam::coordSet> &, Foam::List<Foam::List<int>> &)
    in file sampledSet/sampledSets/sampledSets.C at line 115
    Sample set line44 has zero points.
--> FOAM Warning : 
    From function void Foam::sampledSets::combineSampledSets(Foam::PtrList<Foam::coordSet> &, Foam::List<Foam::List<int>> &)
    in file sampledSet/sampledSets/sampledSets.C at line 115
    Sample set line45 has zero points.
--> FOAM Warning : 
    From function void Foam::sampledSets::combineSampledSets(Foam::PtrList<Foam::coordSet> &, Foam::List<Foam::List<int>> &)
    in file sampledSet/sampledSets/sampledSets.C at line 115
    Sample set line46 has zero points.
--> FOAM Warning : 
    From function void Foam::sampledSets::combineSampledSets(Foam::PtrList<Foam::coordSet> &, Foam::List<Foam::List<int>> &)
    in file sampledSet/sampledSets/sampledSets.C at line 115
    Sample set line47 has zero points.
--> FOAM Warning : 
    From function void Foam::sampledSets::combineSampledSets(Foam::PtrList<Foam::coordSet> &, Foam::List<Foam::List<int>> &)
    in file sampledSet/sampledSets/sampledSets.C at line 115
    Sample set line48 has zero points.
--> FOAM Warning : 
    From function void Foam::sampledSets::combineSampledSets(Foam::PtrList<Foam::coordSet> &, Foam::List<Foam::List<int>> &)
    in file sampledSet/sampledSets/sampledSets.C at line 115
    Sample set line49 has zero points.
--> FOAM Warning : 
    From function void Foam::sampledSets::combineSampledSets(Foam::PtrList<Foam::coordSet> &, Foam::List<Foam::List<int>> &)
    in file sampledSet/sampledSets/sampledSets.C at line 115
    Sample set line50 has zero points.
Reading set description:
    line1
    line2
    line3
    line4
    line5
    line6
    line7
    line8
    line9
    line10
    line11
    line12
    line13
    line14
    line15
    line16
    line17
    line18
    line19
    line20
    line21
    line22
    line23
    line24
    line25
    line26
    line27
    line28
    line29
    line30
    line31
    line32
    line33
    line34
    line35
    line36
    line37
    line38
    line39
    line40
    line41
    line42
    line43
    line44
    line45
    line46
    line47
    line48
    line49
    line50

forces forces:
--> FOAM Warning : 
    From function const Foam::HashTable<Foam::List<int>, Foam::word, Foam::string::hash> &Foam::polyBoundaryMesh::groupPatchIDs() const
    in file meshes/polyMesh/polyBoundaryMesh/polyBoundaryMesh.C at line 473
    Removing patchGroup 'wall' which clashes with patch 2 of the same name.
--> FOAM Warning : 
    From function Foam::HashSet<int, Foam::Hash<int>> Foam::polyBoundaryMesh::patchSet(const Foam::UList<Foam::wordRe> &, bool, bool) const
    in file meshes/polyMesh/polyBoundaryMesh/polyBoundaryMesh.C at line 804
    Cannot find any patch or group names matching cylinder
    Not including porosity effects
forces forceCoeffs:
--> FOAM Warning : 
    From function Foam::HashSet<int, Foam::Hash<int>> Foam::polyBoundaryMesh::patchSet(const Foam::UList<Foam::wordRe> &, bool, bool) const
    in file meshes/polyMesh/polyBoundaryMesh/polyBoundaryMesh.C at line 804
    Cannot find any patch or group names matching cylinder
    Not including porosity effects
forceCoeffs forceCoeffs:
--> FOAM Warning : 
    From function Foam::HashSet<int, Foam::Hash<int>> Foam::polyBoundaryMesh::patchSet(const Foam::UList<Foam::wordRe> &, bool, bool) const
    in file meshes/polyMesh/polyBoundaryMesh/polyBoundaryMesh.C at line 804
    Cannot find any patch or group names matching cylinder
    Not including porosity effects
Time = 0.0025

Courant Number mean: 0.0137037 max: 0.125
smoothSolver:  Solving for Ux, Initial residual = 1, Final residual = 5.37629e-10, No Iterations 3
smoothSolver:  Solving for Uy, Initial residual = 1.44142e-13, Final residual = 1.44142e-13, No Iterations 0
smoothSolver:  Solving for Uz, Initial residual = 0.518979, Final residual = 1.33433e-09, No Iterations 3
DICPCG:  Solving for p, Initial residual = 1, Final residual = 8.98487e-08, No Iterations 90
time step continuity errors : sum local = 3.34862e-11, global = 5.33494e-14, cumulative = 5.33494e-14
DICPCG:  Solving for p, Initial residual = 0.00606179, Final residual = 7.43614e-08, No Iterations 83
time step continuity errors : sum local = 4.97258e-10, global = -3.23297e-12, cumulative = -3.17962e-12
ExecutionTime = 0.16 s  ClockTime = 6 s

forces forces write:
    sum of forces:
        pressure : (0 0 0)
        viscous  : (0 0 0)
        porous   : (0 0 0)
    sum of moments:
        pressure : (0 0 0)
        viscous  : (0 0 0)
        porous   : (0 0 0)

forceCoeffs forceCoeffs write:
    Cm    = 0
    Cd    = 0
    Cl    = 0
    Cl(f) = 0
    Cl(r) = 0

Time = 0.005

Courant Number mean: 0.0267431 max: 0.592679
smoothSolver:  Solving for Ux, Initial residual = 0.0497961, Final residual = 3.61608e-08, No Iterations 5
smoothSolver:  Solving for Uy, Initial residual = 0.332261, Final residual = 1.15674e-08, No Iterations 5
smoothSolver:  Solving for Uz, Initial residual = 0.275551, Final residual = 6.72302e-09, No Iterations 5
DICPCG:  Solving for p, Initial residual = 0.071543, Final residual = 9.45935e-08, No Iterations 85
time step continuity errors : sum local = 6.27381e-10, global = -1.3932e-12, cumulative = -4.57283e-12
DICPCG:  Solving for p, Initial residual = 0.347292, Final residual = 6.91208e-08, No Iterations 88
time step continuity errors : sum local = 3.76635e-11, global = -1.60792e-13, cumulative = -4.73362e-12
ExecutionTime = 0.18 s  ClockTime = 6 s

forces forces write:
    sum of forces:
        pressure : (0 0 0)
        viscous  : (0 0 0)
        porous   : (0 0 0)
    sum of moments:
        pressure : (0 0 0)
        viscous  : (0 0 0)
        porous   : (0 0 0)

forceCoeffs forceCoeffs write:
    Cm    = 0
    Cd    = 0
    Cl    = 0
    Cl(f) = 0
    Cl(r) = 0

Time = 0.0075

Courant Number mean: 0.0267442 max: 0.601758
smoothSolver:  Solving for Ux, Initial residual = 0.00250127, Final residual = 3.65062e-08, No Iterations 3
smoothSolver:  Solving for Uy, Initial residual = 0.0199707, Final residual = 1.54737e-08, No Iterations 4
smoothSolver:  Solving for Uz, Initial residual = 0.0105319, Final residual = 3.44566e-08, No Iterations 4
DICPCG:  Solving for p, Initial residual = 0.185527, Final residual = 7.29459e-08, No Iterations 87
time step continuity errors : sum local = 1.7223e-11, global = 9.89847e-14, cumulative = -4.63463e-12
DICPCG:  Solving for p, Initial residual = 0.0296984, Final residual = 9.80472e-08, No Iterations 83
time step continuity errors : sum local = 1.80697e-11, global = -1.21982e-13, cumulative = -4.75662e-12
ExecutionTime = 0.19 s  ClockTime = 6 s

forces forces write:
    sum of forces:
        pressure : (0 0 0)
        viscous  : (0 0 0)
        porous   : (0 0 0)
    sum of moments:
        pressure : (0 0 0)
        viscous  : (0 0 0)
        porous   : (0 0 0)

forceCoeffs forceCoeffs write:
    Cm    = 0
    Cd    = 0
    Cl    = 0
    Cl(f) = 0
    Cl(r) = 0

Time = 0.01

Courant Number mean: 0.0267453 max: 0.60919
smoothSolver:  Solving for Ux, Initial residual = 0.00186302, Final residual = 2.92855e-08, No Iterations 3
smoothSolver:  Solving for Uy, Initial residual = 0.0109783, Final residual = 1.39887e-08, No Iterations 4
smoothSolver:  Solving for Uz, Initial residual = 0.00950656, Final residual = 3.32581e-08, No Iterations 4
DICPCG:  Solving for p, Initial residual = 0.0715906, Final residual = 6.06589e-08, No Iterations 86
time step continuity errors : sum local = 1.10109e-11, global = 1.06811e-13, cumulative = -4.64981e-12
DICPCG:  Solving for p, Initial residual = 0.00886628, Final residual = 9.85508e-08, No Iterations 82
time step continuity errors : sum local = 1.63062e-11, global = -2.60318e-14, cumulative = -4.67584e-12
ExecutionTime = 0.21 s  ClockTime = 6 s

forces forces write:
    sum of forces:
        pressure : (0 0 0)
        viscous  : (0 0 0)
        porous   : (0 0 0)
    sum of moments:
        pressure : (0 0 0)
        viscous  : (0 0 0)
        porous   : (0 0 0)

forceCoeffs forceCoeffs write:
    Cm    = 0
    Cd    = 0
    Cl    = 0
    Cl(f) = 0
    Cl(r) = 0

Time = 0.0125

Courant Number mean: 0.0267464 max: 0.616241
smoothSolver:  Solving for Ux, Initial residual = 0.00168283, Final residual = 2.86822e-08, No Iterations 3
smoothSolver:  Solving for Uy, Initial residual = 0.0100613, Final residual = 1.40481e-08, No Iterations 4
smoothSolver:  Solving for Uz, Initial residual = 0.00887653, Final residual = 3.15076e-08, No Iterations 4
DICPCG:  Solving for p, Initial residual = 0.0603291, Final residual = 8.83532e-08, No Iterations 85
time step continuity errors : sum local = 1.45835e-11, global = 1.86128e-13, cumulative = -4.48971e-12
DICPCG:  Solving for p, Initial residual = 0.00909808, Final residual = 5.45874e-08, No Iterations 83
time step continuity errors : sum local = 8.52913e-12, global = 1.275e-13, cumulative = -4.36221e-12
ExecutionTime = 0.22 s  ClockTime = 6 s

forces forces write:
    sum of forces:
        pressure : (0 0 0)
        viscous  : (0 0 0)
        porous   : (0 0 0)
    sum of moments:
        pressure : (0 0 0)
        viscous  : (0 0 0)
        porous   : (0 0 0)

forceCoeffs forceCoeffs write:
    Cm    = 0
    Cd    = 0
    Cl    = 0
    Cl(f) = 0
    Cl(r) = 0

Time = 0.015

Courant Number mean: 0.0267475 max: 0.622596
smoothSolver:  Solving for Ux, Initial residual = 0.00158247, Final residual = 2.87939e-08, No Iterations 3
smoothSolver:  Solving for Uy, Initial residual = 0.00978399, Final residual = 1.42956e-08, No Iterations 4
smoothSolver:  Solving for Uz, Initial residual = 0.00845331, Final residual = 2.91829e-08, No Iterations 4
DICPCG:  Solving for p, Initial residual = 0.0539979, Final residual = 7.32803e-08, No Iterations 85
time step continuity errors : sum local = 1.15073e-11, global = 1.0948e-13, cumulative = -4.25273e-12
DICPCG:  Solving for p, Initial residual = 0.00873977, Final residual = 5.23701e-08, No Iterations 83
time step continuity errors : sum local = 7.9374e-12, global = 1.25984e-13, cumulative = -4.12674e-12
ExecutionTime = 0.25 s  ClockTime = 6 s

forces forces write:
    sum of forces:
        pressure : (0 0 0)
        viscous  : (0 0 0)
        porous   : (0 0 0)
    sum of moments:
        pressure : (0 0 0)
        viscous  : (0 0 0)
        porous   : (0 0 0)

forceCoeffs forceCoeffs write:
    Cm    = 0
    Cd    = 0
    Cl    = 0
    Cl(f) = 0
    Cl(r) = 0

Time = 0.0175

Courant Number mean: 0.0267491 max: 0.627923
smoothSolver:  Solving for Ux, Initial residual = 0.00154481, Final residual = 2.89923e-08, No Iterations 3
smoothSolver:  Solving for Uy, Initial residual = 0.00974439, Final residual = 1.45558e-08, No Iterations 4
smoothSolver:  Solving for Uz, Initial residual = 0.00830968, Final residual = 2.81164e-08, No Iterations 4
DICPCG:  Solving for p, Initial residual = 0.0498952, Final residual = 6.49791e-08, No Iterations 85
time step continuity errors : sum local = 9.92982e-12, global = 4.07942e-14, cumulative = -4.08595e-12
DICPCG:  Solving for p, Initial residual = 0.00808722, Final residual = 5.04924e-08, No Iterations 83
time step continuity errors : sum local = 7.77279e-12, global = 1.12708e-13, cumulative = -3.97324e-12
ExecutionTime = 0.26 s  ClockTime = 6 s

forces forces write:
    sum of forces:
        pressure : (0 0 0)
        viscous  : (0 0 0)
        porous   : (0 0 0)
    sum of moments:
        pressure : (0 0 0)
        viscous  : (0 0 0)
        porous   : (0 0 0)

forceCoeffs forceCoeffs write:
    Cm    = 0
    Cd    = 0
    Cl    = 0
    Cl(f) = 0
    Cl(r) = 0

Time = 0.02

Courant Number mean: 0.0267514 max: 0.631846
smoothSolver:  Solving for Ux, Initial residual = 0.00150774, Final residual = 2.96751e-08, No Iterations 3
smoothSolver:  Solving for Uy, Initial residual = 0.00973344, Final residual = 1.45884e-08, No Iterations 4
smoothSolver:  Solving for Uz, Initial residual = 0.00817798, Final residual = 2.81748e-08, No Iterations 4
DICPCG:  Solving for p, Initial residual = 0.0449401, Final residual = 7.481e-08, No Iterations 82
time step continuity errors : sum local = 1.16606e-11, global = -2.95716e-14, cumulative = -4.00281e-12
DICPCG:  Solving for p, Initial residual = 0.0071857, Final residual = 9.02564e-08, No Iterations 82
time step continuity errors : sum local = 1.46168e-11, global = 1.88483e-14, cumulative = -3.98397e-12
ExecutionTime = 0.28 s  ClockTime = 6 s

forces forces write:
    sum of forces:
        pressure : (0 0 0)
        viscous  : (0 0 0)
        porous   : (0 0 0)
    sum of moments:
        pressure : (0 0 0)
        viscous  : (0 0 0)
        porous   : (0 0 0)

forceCoeffs forceCoeffs write:
    Cm    = 0
    Cd    = 0
    Cl    = 0
    Cl(f) = 0
    Cl(r) = 0

Time = 0.0225

Courant Number mean: 0.0267553 max: 0.634836
smoothSolver:  Solving for Ux, Initial residual = 0.00149714, Final residual = 3.13666e-08, No Iterations 3
smoothSolver:  Solving for Uy, Initial residual = 0.00974796, Final residual = 1.45974e-08, No Iterations 4
smoothSolver:  Solving for Uz, Initial residual = 0.00801769, Final residual = 3.05173e-08, No Iterations 4
DICPCG:  Solving for p, Initial residual = 0.041581, Final residual = 9.65351e-08, No Iterations 84
time step continuity errors : sum local = 1.58218e-11, global = -6.58404e-15, cumulative = -3.99055e-12
DICPCG:  Solving for p, Initial residual = 0.00651698, Final residual = 7.85292e-08, No Iterations 80
time step continuity errors : sum local = 1.33021e-11, global = -2.33852e-13, cumulative = -4.2244e-12
ExecutionTime = 0.29 s  ClockTime = 6 s

forces forces write:
    sum of forces:
        pressure : (0 0 0)
        viscous  : (0 0 0)
        porous   : (0 0 0)
    sum of moments:
        pressure : (0 0 0)
        viscous  : (0 0 0)
        porous   : (0 0 0)

forceCoeffs forceCoeffs write:
    Cm    = 0
    Cd    = 0
    Cl    = 0
    Cl(f) = 0
    Cl(r) = 0

Time = 0.025

Courant Number mean: 0.0267616 max: 0.636617
smoothSolver:  Solving for Ux, Initial residual = 0.0014816, Final residual = 3.25335e-08, No Iterations 3
smoothSolver:  Solving for Uy, Initial residual = 0.00981001, Final residual = 1.48483e-08, No Iterations 4
smoothSolver:  Solving for Uz, Initial residual = 0.00806671, Final residual = 3.33252e-08, No Iterations 4
DICPCG:  Solving for p, Initial residual = 0.0393541, Final residual = 9.4574e-08, No Iterations 81
time step continuity errors : sum local = 1.62085e-11, global = -4.55075e-14, cumulative = -4.26991e-12
DICPCG:  Solving for p, Initial residual = 0.00603199, Final residual = 9.76787e-08, No Iterations 80
time step continuity errors : sum local = 1.72337e-11, global = -4.27898e-14, cumulative = -4.3127e-12
ExecutionTime = 0.31 s  ClockTime = 6 s

forces forces write:
    sum of forces:
        pressure : (0 0 0)
        viscous  : (0 0 0)
        porous   : (0 0 0)
    sum of moments:
        pressure : (0 0 0)
        viscous  : (0 0 0)
        porous   : (0 0 0)

forceCoeffs forceCoeffs write:
    Cm    = 0
    Cd    = 0
    Cl    = 0
    Cl(f) = 0
    Cl(r) = 0

Time = 0.0275

Courant Number mean: 0.0267715 max: 0.636836
smoothSolver:  Solving for Ux, Initial residual = 0.00147936, Final residual = 3.30424e-08, No Iterations 3
smoothSolver:  Solving for Uy, Initial residual = 0.00986278, Final residual = 1.58312e-08, No Iterations 4
smoothSolver:  Solving for Uz, Initial residual = 0.00829267, Final residual = 3.62196e-08, No Iterations 4
DICPCG:  Solving for p, Initial residual = 0.0375539, Final residual = 6.44318e-08, No Iterations 84
time step continuity errors : sum local = 1.14993e-11, global = 4.06379e-14, cumulative = -4.27206e-12
DICPCG:  Solving for p, Initial residual = 0.0056687, Final residual = 5.66298e-08, No Iterations 82
time step continuity errors : sum local = 1.03709e-11, global = -2.83072e-14, cumulative = -4.30037e-12
ExecutionTime = 0.32 s  ClockTime = 6 s

forces forces write:
    sum of forces:
        pressure : (0 0 0)
        viscous  : (0 0 0)
        porous   : (0 0 0)
    sum of moments:
        pressure : (0 0 0)
        viscous  : (0 0 0)
        porous   : (0 0 0)

forceCoeffs forceCoeffs write:
    Cm    = 0
    Cd    = 0
    Cl    = 0
    Cl(f) = 0
    Cl(r) = 0

Time = 0.03

Courant Number mean: 0.0267847 max: 0.635426
smoothSolver:  Solving for Ux, Initial residual = 0.00147268, Final residual = 3.51238e-08, No Iterations 3
smoothSolver:  Solving for Uy, Initial residual = 0.00990865, Final residual = 1.73224e-08, No Iterations 4
smoothSolver:  Solving for Uz, Initial residual = 0.00824173, Final residual = 3.80012e-08, No Iterations 4
DICPCG:  Solving for p, Initial residual = 0.0358435, Final residual = 9.41409e-08, No Iterations 83
time step continuity errors : sum local = 1.74346e-11, global = -2.90806e-13, cumulative = -4.59117e-12
DICPCG:  Solving for p, Initial residual = 0.00524341, Final residual = 5.99528e-08, No Iterations 82
time step continuity errors : sum local = 1.13495e-11, global = -2.906e-14, cumulative = -4.62023e-12
ExecutionTime = 0.34 s  ClockTime = 6 s

forces forces write:
    sum of forces:
        pressure : (0 0 0)
        viscous  : (0 0 0)
        porous   : (0 0 0)
    sum of moments:
        pressure : (0 0 0)
        viscous  : (0 0 0)
        porous   : (0 0 0)

forceCoeffs forceCoeffs write:
    Cm    = 0
    Cd    = 0
    Cl    = 0
    Cl(f) = 0
    Cl(r) = 0

Time = 0.0325

Courant Number mean: 0.0268009 max: 0.635035
smoothSolver:  Solving for Ux, Initial residual = 0.00144882, Final residual = 3.72175e-08, No Iterations 3
smoothSolver:  Solving for Uy, Initial residual = 0.00996408, Final residual = 1.89627e-08, No Iterations 4
smoothSolver:  Solving for Uz, Initial residual = 0.00827325, Final residual = 3.84599e-08, No Iterations 4
DICPCG:  Solving for p, Initial residual = 0.0328757, Final residual = 5.53756e-08, No Iterations 84
time step continuity errors : sum local = 1.05727e-11, global = -1.84298e-13, cumulative = -4.80453e-12
DICPCG:  Solving for p, Initial residual = 0.00483675, Final residual = 5.89262e-08, No Iterations 82
time step continuity errors : sum local = 1.14428e-11, global = 4.1991e-14, cumulative = -4.76254e-12
ExecutionTime = 0.35 s  ClockTime = 6 s

forces forces write:
    sum of forces:
        pressure : (0 0 0)
        viscous  : (0 0 0)
        porous   : (0 0 0)
    sum of moments:
        pressure : (0 0 0)
        viscous  : (0 0 0)
        porous   : (0 0 0)

forceCoeffs forceCoeffs write:
    Cm    = 0
    Cd    = 0
    Cl    = 0
    Cl(f) = 0
    Cl(r) = 0

Time = 0.035

Courant Number mean: 0.026819 max: 0.633905
smoothSolver:  Solving for Ux, Initial residual = 0.00142659, Final residual = 3.82367e-08, No Iterations 3
smoothSolver:  Solving for Uy, Initial residual = 0.00999286, Final residual = 2.02928e-08, No Iterations 4
smoothSolver:  Solving for Uz, Initial residual = 0.00829944, Final residual = 3.78356e-08, No Iterations 4
DICPCG:  Solving for p, Initial residual = 0.0308167, Final residual = 5.49724e-08, No Iterations 84
time step continuity errors : sum local = 1.07796e-11, global = -1.54072e-13, cumulative = -4.91661e-12
DICPCG:  Solving for p, Initial residual = 0.00440055, Final residual = 7.37061e-08, No Iterations 81
time step continuity errors : sum local = 1.46883e-11, global = -9.36636e-15, cumulative = -4.92598e-12
ExecutionTime = 0.36 s  ClockTime = 6 s

forces forces write:
    sum of forces:
        pressure : (0 0 0)
        viscous  : (0 0 0)
        porous   : (0 0 0)
    sum of moments:
        pressure : (0 0 0)
        viscous  : (0 0 0)
        porous   : (0 0 0)

forceCoeffs forceCoeffs write:
    Cm    = 0
    Cd    = 0
    Cl    = 0
    Cl(f) = 0
    Cl(r) = 0

Time = 0.0375

Courant Number mean: 0.0268382 max: 0.632976
smoothSolver:  Solving for Ux, Initial residual = 0.00142434, Final residual = 3.97926e-08, No Iterations 3
smoothSolver:  Solving for Uy, Initial residual = 0.009987, Final residual = 2.1388e-08, No Iterations 4
smoothSolver:  Solving for Uz, Initial residual = 0.00823303, Final residual = 3.63791e-08, No Iterations 4
DICPCG:  Solving for p, Initial residual = 0.0300569, Final residual = 5.10408e-08, No Iterations 84
time step continuity errors : sum local = 1.02737e-11, global = -1.86598e-13, cumulative = -5.11258e-12
DICPCG:  Solving for p, Initial residual = 0.00403417, Final residual = 5.36177e-08, No Iterations 82
time step continuity errors : sum local = 1.09494e-11, global = 1.04482e-13, cumulative = -5.00809e-12
ExecutionTime = 0.38 s  ClockTime = 6 s

forces forces write:
    sum of forces:
        pressure : (0 0 0)
        viscous  : (0 0 0)
        porous   : (0 0 0)
    sum of moments:
        pressure : (0 0 0)
        viscous  : (0 0 0)
        porous   : (0 0 0)

forceCoeffs forceCoeffs write:
    Cm    = 0
    Cd    = 0
    Cl    = 0
    Cl(f) = 0
    Cl(r) = 0

Time = 0.04

Courant Number mean: 0.0268579 max: 0.633095
smoothSolver:  Solving for Ux, Initial residual = 0.00141883, Final residual = 4.17675e-08, No Iterations 3
smoothSolver:  Solving for Uy, Initial residual = 0.00989862, Final residual = 2.20142e-08, No Iterations 4
smoothSolver:  Solving for Uz, Initial residual = 0.00823621, Final residual = 3.44275e-08, No Iterations 4
DICPCG:  Solving for p, Initial residual = 0.0288157, Final residual = 9.73461e-08, No Iterations 83
time step continuity errors : sum local = 2.0056e-11, global = -4.00554e-13, cumulative = -5.40865e-12
DICPCG:  Solving for p, Initial residual = 0.00396757, Final residual = 6.09847e-08, No Iterations 82
time step continuity errors : sum local = 1.27211e-11, global = 1.57177e-13, cumulative = -5.25147e-12
ExecutionTime = 0.39 s  ClockTime = 6 s

forces forces write:
    sum of forces:
        pressure : (0 0 0)
        viscous  : (0 0 0)
        porous   : (0 0 0)
    sum of moments:
        pressure : (0 0 0)
        viscous  : (0 0 0)
        porous   : (0 0 0)

forceCoeffs forceCoeffs write:
    Cm    = 0
    Cd    = 0
    Cl    = 0
    Cl(f) = 0
    Cl(r) = 0

Time = 0.0425

Courant Number mean: 0.0268777 max: 0.632644
smoothSolver:  Solving for Ux, Initial residual = 0.00140848, Final residual = 4.26451e-08, No Iterations 3
smoothSolver:  Solving for Uy, Initial residual = 0.00964219, Final residual = 2.20158e-08, No Iterations 4
smoothSolver:  Solving for Uz, Initial residual = 0.00810871, Final residual = 3.3563e-08, No Iterations 4
DICPCG:  Solving for p, Initial residual = 0.0282927, Final residual = 9.92559e-08, No Iterations 83
time step continuity errors : sum local = 2.09212e-11, global = -1.04894e-13, cumulative = -5.35637e-12
DICPCG:  Solving for p, Initial residual = 0.00383548, Final residual = 5.68433e-08, No Iterations 82
time step continuity errors : sum local = 1.21379e-11, global = 1.4983e-13, cumulative = -5.20654e-12
ExecutionTime = 0.41 s  ClockTime = 6 s

forces forces write:
    sum of forces:
        pressure : (0 0 0)
        viscous  : (0 0 0)
        porous   : (0 0 0)
    sum of moments:
        pressure : (0 0 0)
        viscous  : (0 0 0)
        porous   : (0 0 0)

forceCoeffs forceCoeffs write:
    Cm    = 0
    Cd    = 0
    Cl    = 0
    Cl(f) = 0
    Cl(r) = 0

Time = 0.045

Courant Number mean: 0.0268972 max: 0.633951
smoothSolver:  Solving for Ux, Initial residual = 0.00140205, Final residual = 4.27022e-08, No Iterations 3
smoothSolver:  Solving for Uy, Initial residual = 0.00937572, Final residual = 2.16936e-08, No Iterations 4
smoothSolver:  Solving for Uz, Initial residual = 0.00799943, Final residual = 3.40323e-08, No Iterations 4
DICPCG:  Solving for p, Initial residual = 0.027413, Final residual = 9.75592e-08, No Iterations 83
time step continuity errors : sum local = 2.10065e-11, global = -2.0808e-13, cumulative = -5.41462e-12
DICPCG:  Solving for p, Initial residual = 0.00374472, Final residual = 8.71577e-08, No Iterations 81
time step continuity errors : sum local = 1.89575e-11, global = 3.91966e-13, cumulative = -5.02265e-12
ExecutionTime = 0.42 s  ClockTime = 6 s

forces forces write:
    sum of forces:
        pressure : (0 0 0)
        viscous  : (0 0 0)
        porous   : (0 0 0)
    sum of moments:
        pressure : (0 0 0)
        viscous  : (0 0 0)
        porous   : (0 0 0)

forceCoeffs forceCoeffs write:
    Cm    = 0
    Cd    = 0
    Cl    = 0
    Cl(f) = 0
    Cl(r) = 0

Time = 0.0475

Courant Number mean: 0.026916 max: 0.635088
smoothSolver:  Solving for Ux, Initial residual = 0.00140051, Final residual = 4.33623e-08, No Iterations 3
smoothSolver:  Solving for Uy, Initial residual = 0.00913819, Final residual = 2.10821e-08, No Iterations 4
smoothSolver:  Solving for Uz, Initial residual = 0.00794193, Final residual = 3.59141e-08, No Iterations 4
DICPCG:  Solving for p, Initial residual = 0.0265061, Final residual = 7.85986e-08, No Iterations 83
time step continuity errors : sum local = 1.7228e-11, global = -2.34044e-13, cumulative = -5.25669e-12
DICPCG:  Solving for p, Initial residual = 0.00354406, Final residual = 5.70987e-08, No Iterations 82
time step continuity errors : sum local = 1.26301e-11, global = 1.85038e-13, cumulative = -5.07166e-12
ExecutionTime = 0.44 s  ClockTime = 6 s

forces forces write:
    sum of forces:
        pressure : (0 0 0)
        viscous  : (0 0 0)
        porous   : (0 0 0)
    sum of moments:
        pressure : (0 0 0)
        viscous  : (0 0 0)
        porous   : (0 0 0)

forceCoeffs forceCoeffs write:
    Cm    = 0
    Cd    = 0
    Cl    = 0
    Cl(f) = 0
    Cl(r) = 0

Time = 0.05

Courant Number mean: 0.0269343 max: 0.636057
smoothSolver:  Solving for Ux, Initial residual = 0.00139472, Final residual = 4.42378e-08, No Iterations 3
smoothSolver:  Solving for Uy, Initial residual = 0.00892891, Final residual = 2.03732e-08, No Iterations 4
smoothSolver:  Solving for Uz, Initial residual = 0.00793883, Final residual = 3.80792e-08, No Iterations 4
DICPCG:  Solving for p, Initial residual = 0.0243453, Final residual = 9.08613e-08, No Iterations 83
time step continuity errors : sum local = 2.0216e-11, global = -3.42501e-13, cumulative = -5.41416e-12
DICPCG:  Solving for p, Initial residual = 0.00341082, Final residual = 8.69835e-08, No Iterations 81
time step continuity errors : sum local = 1.949e-11, global = 3.53859e-13, cumulative = -5.0603e-12
ExecutionTime = 0.45 s  ClockTime = 6 s

forces forces write:
    sum of forces:
        pressure : (0 0 0)
        viscous  : (0 0 0)
        porous   : (0 0 0)
    sum of moments:
        pressure : (0 0 0)
        viscous  : (0 0 0)
        porous   : (0 0 0)

forceCoeffs forceCoeffs write:
    Cm    = 0
    Cd    = 0
    Cl    = 0
    Cl(f) = 0
    Cl(r) = 0

Time = 0.0525

Courant Number mean: 0.0269519 max: 0.638414
smoothSolver:  Solving for Ux, Initial residual = 0.00137977, Final residual = 4.4854e-08, No Iterations 3
smoothSolver:  Solving for Uy, Initial residual = 0.00873795, Final residual = 1.97258e-08, No Iterations 4
smoothSolver:  Solving for Uz, Initial residual = 0.00783509, Final residual = 4.0478e-08, No Iterations 4
DICPCG:  Solving for p, Initial residual = 0.0236266, Final residual = 8.87232e-08, No Iterations 83
time step continuity errors : sum local = 1.99787e-11, global = -3.80318e-13, cumulative = -5.44062e-12
DICPCG:  Solving for p, Initial residual = 0.00331236, Final residual = 7.57654e-08, No Iterations 81
time step continuity errors : sum local = 1.71624e-11, global = 1.50075e-13, cumulative = -5.29054e-12
ExecutionTime = 0.47 s  ClockTime = 6 s

forces forces write:
    sum of forces:
        pressure : (0 0 0)
        viscous  : (0 0 0)
        porous   : (0 0 0)
    sum of moments:
        pressure : (0 0 0)
        viscous  : (0 0 0)
        porous   : (0 0 0)

forceCoeffs forceCoeffs write:
    Cm    = 0
    Cd    = 0
    Cl    = 0
    Cl(f) = 0
    Cl(r) = 0

Time = 0.055

Courant Number mean: 0.0269689 max: 0.640201
smoothSolver:  Solving for Ux, Initial residual = 0.00135122, Final residual = 4.53194e-08, No Iterations 3
smoothSolver:  Solving for Uy, Initial residual = 0.0085454, Final residual = 1.92627e-08, No Iterations 4
smoothSolver:  Solving for Uz, Initial residual = 0.00775413, Final residual = 4.27035e-08, No Iterations 4
DICPCG:  Solving for p, Initial residual = 0.0235985, Final residual = 8.71314e-08, No Iterations 83
time step continuity errors : sum local = 1.9824e-11, global = -4.08176e-13, cumulative = -5.69872e-12
DICPCG:  Solving for p, Initial residual = 0.00321481, Final residual = 7.60745e-08, No Iterations 80
time step continuity errors : sum local = 1.7399e-11, global = -5.35372e-14, cumulative = -5.75226e-12
ExecutionTime = 0.48 s  ClockTime = 6 s

forces forces write:
    sum of forces:
        pressure : (0 0 0)
        viscous  : (0 0 0)
        porous   : (0 0 0)
    sum of moments:
        pressure : (0 0 0)
        viscous  : (0 0 0)
        porous   : (0 0 0)

forceCoeffs forceCoeffs write:
    Cm    = 0
    Cd    = 0
    Cl    = 0
    Cl(f) = 0
    Cl(r) = 0

Time = 0.0575

Courant Number mean: 0.0269847 max: 0.641797
smoothSolver:  Solving for Ux, Initial residual = 0.00134947, Final residual = 4.58596e-08, No Iterations 3
smoothSolver:  Solving for Uy, Initial residual = 0.00835158, Final residual = 1.89959e-08, No Iterations 4
smoothSolver:  Solving for Uz, Initial residual = 0.00760526, Final residual = 4.42333e-08, No Iterations 4
DICPCG:  Solving for p, Initial residual = 0.0219741, Final residual = 8.34168e-08, No Iterations 83
time step continuity errors : sum local = 1.91385e-11, global = -4.11165e-13, cumulative = -6.16342e-12
DICPCG:  Solving for p, Initial residual = 0.00309058, Final residual = 5.72061e-08, No Iterations 80
time step continuity errors : sum local = 1.31764e-11, global = -1.61875e-13, cumulative = -6.3253e-12
ExecutionTime = 0.5 s  ClockTime = 6 s

forces forces write:
    sum of forces:
        pressure : (0 0 0)
        viscous  : (0 0 0)
        porous   : (0 0 0)
    sum of moments:
        pressure : (0 0 0)
        viscous  : (0 0 0)
        porous   : (0 0 0)

forceCoeffs forceCoeffs write:
    Cm    = 0
    Cd    = 0
    Cl    = 0
    Cl(f) = 0
    Cl(r) = 0

Time = 0.06

Courant Number mean: 0.0269997 max: 0.644374
smoothSolver:  Solving for Ux, Initial residual = 0.00134661, Final residual = 4.72008e-08, No Iterations 3
smoothSolver:  Solving for Uy, Initial residual = 0.00817921, Final residual = 1.89434e-08, No Iterations 4
smoothSolver:  Solving for Uz, Initial residual = 0.00748896, Final residual = 4.53215e-08, No Iterations 4
DICPCG:  Solving for p, Initial residual = 0.0221582, Final residual = 8.11206e-08, No Iterations 83
time step continuity errors : sum local = 1.87054e-11, global = -4.09694e-13, cumulative = -6.73499e-12
DICPCG:  Solving for p, Initial residual = 0.00317549, Final residual = 6.95945e-08, No Iterations 80
time step continuity errors : sum local = 1.60738e-11, global = -1.78736e-13, cumulative = -6.91372e-12
ExecutionTime = 0.52 s  ClockTime = 6 s

forces forces write:
    sum of forces:
        pressure : (0 0 0)
        viscous  : (0 0 0)
        porous   : (0 0 0)
    sum of moments:
        pressure : (0 0 0)
        viscous  : (0 0 0)
        porous   : (0 0 0)

forceCoeffs forceCoeffs write:
    Cm    = 0
    Cd    = 0
    Cl    = 0
    Cl(f) = 0
    Cl(r) = 0

Time = 0.0625

Courant Number mean: 0.0270134 max: 0.646282
smoothSolver:  Solving for Ux, Initial residual = 0.00133027, Final residual = 4.79924e-08, No Iterations 3
smoothSolver:  Solving for Uy, Initial residual = 0.00802489, Final residual = 1.89631e-08, No Iterations 4
smoothSolver:  Solving for Uz, Initial residual = 0.00734699, Final residual = 4.64787e-08, No Iterations 4
DICPCG:  Solving for p, Initial residual = 0.0212309, Final residual = 7.5977e-08, No Iterations 83
time step continuity errors : sum local = 1.75578e-11, global = -3.78243e-13, cumulative = -7.29197e-12
DICPCG:  Solving for p, Initial residual = 0.00294945, Final residual = 7.70548e-08, No Iterations 80
time step continuity errors : sum local = 1.78315e-11, global = -1.4443e-13, cumulative = -7.4364e-12
ExecutionTime = 0.53 s  ClockTime = 6 s

forces forces write:
    sum of forces:
        pressure : (0 0 0)
        viscous  : (0 0 0)
        porous   : (0 0 0)
    sum of moments:
        pressure : (0 0 0)
        viscous  : (0 0 0)
        porous   : (0 0 0)

forceCoeffs forceCoeffs write:
    Cm    = 0
    Cd    = 0
    Cl    = 0
    Cl(f) = 0
    Cl(r) = 0

Time = 0.065

Courant Number mean: 0.0270261 max: 0.647583
smoothSolver:  Solving for Ux, Initial residual = 0.0013115, Final residual = 4.82406e-08, No Iterations 3
smoothSolver:  Solving for Uy, Initial residual = 0.00788556, Final residual = 1.90677e-08, No Iterations 4
smoothSolver:  Solving for Uz, Initial residual = 0.00719804, Final residual = 4.68315e-08, No Iterations 4
DICPCG:  Solving for p, Initial residual = 0.0211929, Final residual = 7.24932e-08, No Iterations 83
time step continuity errors : sum local = 1.68016e-11, global = -3.3144e-13, cumulative = -7.76784e-12
DICPCG:  Solving for p, Initial residual = 0.00291866, Final residual = 8.14445e-08, No Iterations 80
time step continuity errors : sum local = 1.8918e-11, global = -1.76646e-13, cumulative = -7.94448e-12
ExecutionTime = 0.55 s  ClockTime = 6 s

forces forces write:
    sum of forces:
        pressure : (0 0 0)
        viscous  : (0 0 0)
        porous   : (0 0 0)
    sum of moments:
        pressure : (0 0 0)
        viscous  : (0 0 0)
        porous   : (0 0 0)

forceCoeffs forceCoeffs write:
    Cm    = 0
    Cd    = 0
    Cl    = 0
    Cl(f) = 0
    Cl(r) = 0

Time = 0.0675

Courant Number mean: 0.0270377 max: 0.649969
smoothSolver:  Solving for Ux, Initial residual = 0.00131312, Final residual = 4.89092e-08, No Iterations 3
smoothSolver:  Solving for Uy, Initial residual = 0.00775714, Final residual = 1.94077e-08, No Iterations 4
smoothSolver:  Solving for Uz, Initial residual = 0.00701587, Final residual = 4.80754e-08, No Iterations 4
DICPCG:  Solving for p, Initial residual = 0.0211392, Final residual = 7.06653e-08, No Iterations 83
time step continuity errors : sum local = 1.6433e-11, global = -3.33366e-13, cumulative = -8.27785e-12
DICPCG:  Solving for p, Initial residual = 0.00293182, Final residual = 8.42805e-08, No Iterations 80
time step continuity errors : sum local = 1.96325e-11, global = -1.95886e-13, cumulative = -8.47374e-12
ExecutionTime = 0.56 s  ClockTime = 6 s

forces forces write:
    sum of forces:
        pressure : (0 0 0)
        viscous  : (0 0 0)
        porous   : (0 0 0)
    sum of moments:
        pressure : (0 0 0)
        viscous  : (0 0 0)
        porous   : (0 0 0)

forceCoeffs forceCoeffs write:
    Cm    = 0
    Cd    = 0
    Cl    = 0
    Cl(f) = 0
    Cl(r) = 0

Time = 0.07

Courant Number mean: 0.0270483 max: 0.651647
smoothSolver:  Solving for Ux, Initial residual = 0.00130077, Final residual = 4.96358e-08, No Iterations 3
smoothSolver:  Solving for Uy, Initial residual = 0.0076638, Final residual = 2.00485e-08, No Iterations 4
smoothSolver:  Solving for Uz, Initial residual = 0.00684425, Final residual = 4.87684e-08, No Iterations 4
DICPCG:  Solving for p, Initial residual = 0.0206371, Final residual = 6.57358e-08, No Iterations 83
time step continuity errors : sum local = 1.5333e-11, global = -3.16676e-13, cumulative = -8.79041e-12
DICPCG:  Solving for p, Initial residual = 0.00279193, Final residual = 8.26776e-08, No Iterations 80
time step continuity errors : sum local = 1.93199e-11, global = -1.97828e-13, cumulative = -8.98824e-12
ExecutionTime = 0.58 s  ClockTime = 6 s

forces forces write:
    sum of forces:
        pressure : (0 0 0)
        viscous  : (0 0 0)
        porous   : (0 0 0)
    sum of moments:
        pressure : (0 0 0)
        viscous  : (0 0 0)
        porous   : (0 0 0)

forceCoeffs forceCoeffs write:
    Cm    = 0
    Cd    = 0
    Cl    = 0
    Cl(f) = 0
    Cl(r) = 0

Time = 0.0725

Courant Number mean: 0.0270582 max: 0.652535
smoothSolver:  Solving for Ux, Initial residual = 0.0012769, Final residual = 5.03156e-08, No Iterations 3
smoothSolver:  Solving for Uy, Initial residual = 0.00758595, Final residual = 2.08232e-08, No Iterations 4
smoothSolver:  Solving for Uz, Initial residual = 0.00658058, Final residual = 4.97706e-08, No Iterations 4
DICPCG:  Solving for p, Initial residual = 0.0203129, Final residual = 6.25798e-08, No Iterations 83
time step continuity errors : sum local = 1.46414e-11, global = -3.417e-13, cumulative = -9.32994e-12
DICPCG:  Solving for p, Initial residual = 0.00268505, Final residual = 8.16521e-08, No Iterations 80
time step continuity errors : sum local = 1.91333e-11, global = -1.86141e-13, cumulative = -9.51608e-12
ExecutionTime = 0.59 s  ClockTime = 6 s

forces forces write:
    sum of forces:
        pressure : (0 0 0)
        viscous  : (0 0 0)
        porous   : (0 0 0)
    sum of moments:
        pressure : (0 0 0)
        viscous  : (0 0 0)
        porous   : (0 0 0)

forceCoeffs forceCoeffs write:
    Cm    = 0
    Cd    = 0
    Cl    = 0
    Cl(f) = 0
    Cl(r) = 0

Time = 0.075

Courant Number mean: 0.0270673 max: 0.654118
smoothSolver:  Solving for Ux, Initial residual = 0.00126593, Final residual = 5.08496e-08, No Iterations 3
smoothSolver:  Solving for Uy, Initial residual = 0.00752239, Final residual = 2.17941e-08, No Iterations 4
smoothSolver:  Solving for Uz, Initial residual = 0.00645399, Final residual = 5.04369e-08, No Iterations 4
DICPCG:  Solving for p, Initial residual = 0.0199602, Final residual = 5.30475e-08, No Iterations 83
time step continuity errors : sum local = 1.24401e-11, global = -3.02779e-13, cumulative = -9.81886e-12
DICPCG:  Solving for p, Initial residual = 0.00275787, Final residual = 7.7751e-08, No Iterations 80
time step continuity errors : sum local = 1.8254e-11, global = -1.24255e-13, cumulative = -9.94311e-12
ExecutionTime = 0.61 s  ClockTime = 6 s

forces forces write:
    sum of forces:
        pressure : (0 0 0)
        viscous  : (0 0 0)
        porous   : (0 0 0)
    sum of moments:
        pressure : (0 0 0)
        viscous  : (0 0 0)
        porous   : (0 0 0)

forceCoeffs forceCoeffs write:
    Cm    = 0
    Cd    = 0
    Cl    = 0
    Cl(f) = 0
    Cl(r) = 0

Time = 0.0775

Courant Number mean: 0.0270754 max: 0.655439
smoothSolver:  Solving for Ux, Initial residual = 0.00125406, Final residual = 5.13252e-08, No Iterations 3
smoothSolver:  Solving for Uy, Initial residual = 0.00747734, Final residual = 2.28331e-08, No Iterations 4
smoothSolver:  Solving for Uz, Initial residual = 0.00621421, Final residual = 5.13871e-08, No Iterations 4
DICPCG:  Solving for p, Initial residual = 0.0199165, Final residual = 7.04679e-08, No Iterations 82
time step continuity errors : sum local = 1.65809e-11, global = -2.01825e-14, cumulative = -9.9633e-12
DICPCG:  Solving for p, Initial residual = 0.00261076, Final residual = 7.14564e-08, No Iterations 80
time step continuity errors : sum local = 1.68519e-11, global = -1.36463e-13, cumulative = -1.00998e-11
ExecutionTime = 0.62 s  ClockTime = 6 s

forces forces write:
    sum of forces:
        pressure : (0 0 0)
        viscous  : (0 0 0)
        porous   : (0 0 0)
    sum of moments:
        pressure : (0 0 0)
        viscous  : (0 0 0)
        porous   : (0 0 0)

forceCoeffs forceCoeffs write:
    Cm    = 0
    Cd    = 0
    Cl    = 0
    Cl(f) = 0
    Cl(r) = 0

Time = 0.08

Courant Number mean: 0.0270826 max: 0.656017
smoothSolver:  Solving for Ux, Initial residual = 0.0012395, Final residual = 5.19208e-08, No Iterations 3
smoothSolver:  Solving for Uy, Initial residual = 0.0074323, Final residual = 2.39483e-08, No Iterations 4
smoothSolver:  Solving for Uz, Initial residual = 0.00603179, Final residual = 5.20361e-08, No Iterations 4
DICPCG:  Solving for p, Initial residual = 0.0191423, Final residual = 4.77618e-08, No Iterations 83
time step continuity errors : sum local = 1.12922e-11, global = -1.83312e-13, cumulative = -1.02831e-11
DICPCG:  Solving for p, Initial residual = 0.0025845, Final residual = 6.73163e-08, No Iterations 80
time step continuity errors : sum local = 1.59546e-11, global = -1.29091e-13, cumulative = -1.04122e-11
ExecutionTime = 0.63 s  ClockTime = 6 s

forces forces write:
    sum of forces:
        pressure : (0 0 0)
        viscous  : (0 0 0)
        porous   : (0 0 0)
    sum of moments:
        pressure : (0 0 0)
        viscous  : (0 0 0)
        porous   : (0 0 0)

forceCoeffs forceCoeffs write:
    Cm    = 0
    Cd    = 0
    Cl    = 0
    Cl(f) = 0
    Cl(r) = 0

Time = 0.0825

Courant Number mean: 0.0270891 max: 0.656408
smoothSolver:  Solving for Ux, Initial residual = 0.00123004, Final residual = 5.23066e-08, No Iterations 3
smoothSolver:  Solving for Uy, Initial residual = 0.00738723, Final residual = 2.51236e-08, No Iterations 4
smoothSolver:  Solving for Uz, Initial residual = 0.00582836, Final residual = 5.25957e-08, No Iterations 4
DICPCG:  Solving for p, Initial residual = 0.0186932, Final residual = 5.70072e-08, No Iterations 82
time step continuity errors : sum local = 1.35421e-11, global = 1.21867e-13, cumulative = -1.02903e-11
DICPCG:  Solving for p, Initial residual = 0.00255842, Final residual = 8.65952e-08, No Iterations 79
time step continuity errors : sum local = 2.06145e-11, global = -2.16042e-13, cumulative = -1.05063e-11
ExecutionTime = 0.65 s  ClockTime = 6 s

forces forces write:
    sum of forces:
        pressure : (0 0 0)
        viscous  : (0 0 0)
        porous   : (0 0 0)
    sum of moments:
        pressure : (0 0 0)
        viscous  : (0 0 0)
        porous   : (0 0 0)

forceCoeffs forceCoeffs write:
    Cm    = 0
    Cd    = 0
    Cl    = 0
    Cl(f) = 0
    Cl(r) = 0

Time = 0.085

Courant Number mean: 0.0270951 max: 0.657352
smoothSolver:  Solving for Ux, Initial residual = 0.00122351, Final residual = 5.24463e-08, No Iterations 3
smoothSolver:  Solving for Uy, Initial residual = 0.00735575, Final residual = 2.62282e-08, No Iterations 4
smoothSolver:  Solving for Uz, Initial residual = 0.00564711, Final residual = 5.29441e-08, No Iterations 4
DICPCG:  Solving for p, Initial residual = 0.0192449, Final residual = 9.88004e-08, No Iterations 82
time step continuity errors : sum local = 2.35839e-11, global = 5.50795e-14, cumulative = -1.04513e-11
DICPCG:  Solving for p, Initial residual = 0.00259615, Final residual = 6.89159e-08, No Iterations 78
time step continuity errors : sum local = 1.64903e-11, global = 2.03363e-14, cumulative = -1.04309e-11
ExecutionTime = 0.66 s  ClockTime = 6 s

forces forces write:
    sum of forces:
        pressure : (0 0 0)
        viscous  : (0 0 0)
        porous   : (0 0 0)
    sum of moments:
        pressure : (0 0 0)
        viscous  : (0 0 0)
        porous   : (0 0 0)

forceCoeffs forceCoeffs write:
    Cm    = 0
    Cd    = 0
    Cl    = 0
    Cl(f) = 0
    Cl(r) = 0

Time = 0.0875

Courant Number mean: 0.0271005 max: 0.657618
smoothSolver:  Solving for Ux, Initial residual = 0.00121717, Final residual = 5.29774e-08, No Iterations 3
smoothSolver:  Solving for Uy, Initial residual = 0.00732358, Final residual = 2.72055e-08, No Iterations 4
smoothSolver:  Solving for Uz, Initial residual = 0.00551531, Final residual = 5.30812e-08, No Iterations 4
DICPCG:  Solving for p, Initial residual = 0.0193116, Final residual = 4.35141e-08, No Iterations 83
time step continuity errors : sum local = 1.04604e-11, global = -1.33866e-13, cumulative = -1.05648e-11
DICPCG:  Solving for p, Initial residual = 0.00261463, Final residual = 6.45207e-08, No Iterations 78
time step continuity errors : sum local = 1.55788e-11, global = -1.92022e-13, cumulative = -1.07568e-11
ExecutionTime = 0.68 s  ClockTime = 6 s

forces forces write:
    sum of forces:
        pressure : (0 0 0)
        viscous  : (0 0 0)
        porous   : (0 0 0)
    sum of moments:
        pressure : (0 0 0)
        viscous  : (0 0 0)
        porous   : (0 0 0)

forceCoeffs forceCoeffs write:
    Cm    = 0
    Cd    = 0
    Cl    = 0
    Cl(f) = 0
    Cl(r) = 0

Time = 0.09

Courant Number mean: 0.027106 max: 0.657182
smoothSolver:  Solving for Ux, Initial residual = 0.00120913, Final residual = 5.35069e-08, No Iterations 3
smoothSolver:  Solving for Uy, Initial residual = 0.00728422, Final residual = 2.83471e-08, No Iterations 4
smoothSolver:  Solving for Uz, Initial residual = 0.00535267, Final residual = 5.35319e-08, No Iterations 4
DICPCG:  Solving for p, Initial residual = 0.019284, Final residual = 4.86794e-08, No Iterations 83
time step continuity errors : sum local = 1.18024e-11, global = -8.50599e-14, cumulative = -1.08419e-11
DICPCG:  Solving for p, Initial residual = 0.00256921, Final residual = 6.2072e-08, No Iterations 78
time step continuity errors : sum local = 1.5104e-11, global = -3.605e-13, cumulative = -1.12024e-11
ExecutionTime = 0.69 s  ClockTime = 7 s

forces forces write:
    sum of forces:
        pressure : (0 0 0)
        viscous  : (0 0 0)
        porous   : (0 0 0)
    sum of moments:
        pressure : (0 0 0)
        viscous  : (0 0 0)
        porous   : (0 0 0)

forceCoeffs forceCoeffs write:
    Cm    = 0
    Cd    = 0
    Cl    = 0
    Cl(f) = 0
    Cl(r) = 0

Time = 0.0925

Courant Number mean: 0.0271109 max: 0.657216
smoothSolver:  Solving for Ux, Initial residual = 0.0012022, Final residual = 5.36687e-08, No Iterations 3
smoothSolver:  Solving for Uy, Initial residual = 0.00725475, Final residual = 2.93621e-08, No Iterations 4
smoothSolver:  Solving for Uz, Initial residual = 0.00519489, Final residual = 5.40338e-08, No Iterations 4
DICPCG:  Solving for p, Initial residual = 0.0200857, Final residual = 9.56168e-08, No Iterations 82
time step continuity errors : sum local = 2.33904e-11, global = -1.26237e-13, cumulative = -1.13286e-11
DICPCG:  Solving for p, Initial residual = 0.00247384, Final residual = 5.87179e-08, No Iterations 78
time step continuity errors : sum local = 1.44327e-11, global = 2.38314e-14, cumulative = -1.13048e-11
ExecutionTime = 0.71 s  ClockTime = 7 s

forces forces write:
    sum of forces:
        pressure : (0 0 0)
        viscous  : (0 0 0)
        porous   : (0 0 0)
    sum of moments:
        pressure : (0 0 0)
        viscous  : (0 0 0)
        porous   : (0 0 0)

forceCoeffs forceCoeffs write:
    Cm    = 0
    Cd    = 0
    Cl    = 0
    Cl(f) = 0
    Cl(r) = 0

Time = 0.095

Courant Number mean: 0.027117 max: 0.657218
smoothSolver:  Solving for Ux, Initial residual = 0.00119736, Final residual = 5.40584e-08, No Iterations 3
smoothSolver:  Solving for Uy, Initial residual = 0.00721489, Final residual = 3.0184e-08, No Iterations 4
smoothSolver:  Solving for Uz, Initial residual = 0.00499458, Final residual = 5.44269e-08, No Iterations 4
DICPCG:  Solving for p, Initial residual = 0.0183793, Final residual = 5.05591e-08, No Iterations 80
time step continuity errors : sum local = 1.24438e-11, global = 5.85435e-14, cumulative = -1.12462e-11
DICPCG:  Solving for p, Initial residual = 0.00231935, Final residual = 6.04628e-08, No Iterations 78
time step continuity errors : sum local = 1.48899e-11, global = -1.3256e-13, cumulative = -1.13788e-11
ExecutionTime = 0.72 s  ClockTime = 7 s

forces forces write:
    sum of forces:
        pressure : (0 0 0)
        viscous  : (0 0 0)
        porous   : (0 0 0)
    sum of moments:
        pressure : (0 0 0)
        viscous  : (0 0 0)
        porous   : (0 0 0)

forceCoeffs forceCoeffs write:
    Cm    = 0
    Cd    = 0
    Cl    = 0
    Cl(f) = 0
    Cl(r) = 0

Time = 0.0975

Courant Number mean: 0.0271265 max: 0.656605
smoothSolver:  Solving for Ux, Initial residual = 0.00118463, Final residual = 5.4489e-08, No Iterations 3
smoothSolver:  Solving for Uy, Initial residual = 0.00717507, Final residual = 3.10056e-08, No Iterations 4
smoothSolver:  Solving for Uz, Initial residual = 0.00475189, Final residual = 5.46709e-08, No Iterations 4
DICPCG:  Solving for p, Initial residual = 0.0183494, Final residual = 6.48366e-08, No Iterations 81
time step continuity errors : sum local = 1.59901e-11, global = 1.82827e-14, cumulative = -1.13605e-11
DICPCG:  Solving for p, Initial residual = 0.00224752, Final residual = 5.7864e-08, No Iterations 78
time step continuity errors : sum local = 1.42764e-11, global = 4.37175e-14, cumulative = -1.13168e-11
ExecutionTime = 0.74 s  ClockTime = 7 s

forces forces write:
    sum of forces:
        pressure : (0 0 0)
        viscous  : (0 0 0)
        porous   : (0 0 0)
    sum of moments:
        pressure : (0 0 0)
        viscous  : (0 0 0)
        porous   : (0 0 0)

forceCoeffs forceCoeffs write:
    Cm    = 0
    Cd    = 0
    Cl    = 0
    Cl(f) = 0
    Cl(r) = 0

Time = 0.1

Courant Number mean: 0.0271392 max: 0.655367
smoothSolver:  Solving for Ux, Initial residual = 0.00117487, Final residual = 5.46828e-08, No Iterations 3
smoothSolver:  Solving for Uy, Initial residual = 0.00713604, Final residual = 3.17228e-08, No Iterations 4
smoothSolver:  Solving for Uz, Initial residual = 0.00461333, Final residual = 5.44925e-08, No Iterations 4
DICPCG:  Solving for p, Initial residual = 0.0173011, Final residual = 5.79558e-08, No Iterations 82
time step continuity errors : sum local = 1.43341e-11, global = -1.1354e-13, cumulative = -1.14303e-11
DICPCG:  Solving for p, Initial residual = 0.00226761, Final residual = 7.119e-08, No Iterations 77
time step continuity errors : sum local = 1.76286e-11, global = -1.43756e-13, cumulative = -1.15741e-11
ExecutionTime = 0.75 s  ClockTime = 7 s

forces forces write:
    sum of forces:
        pressure : (0 0 0)
        viscous  : (0 0 0)
        porous   : (0 0 0)
    sum of moments:
        pressure : (0 0 0)
        viscous  : (0 0 0)
        porous   : (0 0 0)

forceCoeffs forceCoeffs write:
    Cm    = 0
    Cd    = 0
    Cl    = 0
    Cl(f) = 0
    Cl(r) = 0

Time = 0.1025

Courant Number mean: 0.0271531 max: 0.654702
smoothSolver:  Solving for Ux, Initial residual = 0.00116416, Final residual = 5.46779e-08, No Iterations 3
smoothSolver:  Solving for Uy, Initial residual = 0.00710235, Final residual = 3.2502e-08, No Iterations 4
smoothSolver:  Solving for Uz, Initial residual = 0.00442711, Final residual = 5.45157e-08, No Iterations 4
DICPCG:  Solving for p, Initial residual = 0.0178885, Final residual = 9.01973e-08, No Iterations 80
time step continuity errors : sum local = 2.23907e-11, global = 1.96739e-13, cumulative = -1.13774e-11
DICPCG:  Solving for p, Initial residual = 0.00230068, Final residual = 6.53452e-08, No Iterations 76
time step continuity errors : sum local = 1.62384e-11, global = 2.58744e-13, cumulative = -1.11186e-11
ExecutionTime = 0.77 s  ClockTime = 7 s

forces forces write:
    sum of forces:
        pressure : (0 0 0)
        viscous  : (0 0 0)
        porous   : (0 0 0)
    sum of moments:
        pressure : (0 0 0)
        viscous  : (0 0 0)
        porous   : (0 0 0)

forceCoeffs forceCoeffs write:
    Cm    = 0
    Cd    = 0
    Cl    = 0
    Cl(f) = 0
    Cl(r) = 0

Time = 0.105

Courant Number mean: 0.0271674 max: 0.656226
smoothSolver:  Solving for Ux, Initial residual = 0.00115897, Final residual = 5.47053e-08, No Iterations 3
smoothSolver:  Solving for Uy, Initial residual = 0.00706161, Final residual = 3.30985e-08, No Iterations 4
smoothSolver:  Solving for Uz, Initial residual = 0.00423808, Final residual = 5.4443e-08, No Iterations 4
DICPCG:  Solving for p, Initial residual = 0.0165943, Final residual = 9.67209e-08, No Iterations 81
time step continuity errors : sum local = 2.40965e-11, global = 1.94705e-14, cumulative = -1.10991e-11
DICPCG:  Solving for p, Initial residual = 0.00232298, Final residual = 6.05314e-08, No Iterations 77
time step continuity errors : sum local = 1.50952e-11, global = -2.78755e-15, cumulative = -1.11019e-11
ExecutionTime = 0.79 s  ClockTime = 7 s

forces forces write:
    sum of forces:
        pressure : (0 0 0)
        viscous  : (0 0 0)
        porous   : (0 0 0)
    sum of moments:
        pressure : (0 0 0)
        viscous  : (0 0 0)
        porous   : (0 0 0)

forceCoeffs forceCoeffs write:
    Cm    = 0
    Cd    = 0
    Cl    = 0
    Cl(f) = 0
    Cl(r) = 0

Time = 0.1075

Courant Number mean: 0.0271826 max: 0.658781
smoothSolver:  Solving for Ux, Initial residual = 0.00115199, Final residual = 5.46902e-08, No Iterations 3
smoothSolver:  Solving for Uy, Initial residual = 0.00701171, Final residual = 3.37254e-08, No Iterations 4
smoothSolver:  Solving for Uz, Initial residual = 0.00403599, Final residual = 5.41821e-08, No Iterations 4
DICPCG:  Solving for p, Initial residual = 0.0169031, Final residual = 9.41184e-08, No Iterations 81
time step continuity errors : sum local = 2.34951e-11, global = 2.5569e-13, cumulative = -1.08462e-11
DICPCG:  Solving for p, Initial residual = 0.00223509, Final residual = 8.84458e-08, No Iterations 77
time step continuity errors : sum local = 2.20658e-11, global = -2.02401e-14, cumulative = -1.08665e-11
ExecutionTime = 0.8 s  ClockTime = 7 s

forces forces write:
    sum of forces:
        pressure : (0 0 0)
        viscous  : (0 0 0)
        porous   : (0 0 0)
    sum of moments:
        pressure : (0 0 0)
        viscous  : (0 0 0)
        porous   : (0 0 0)

forceCoeffs forceCoeffs write:
    Cm    = 0
    Cd    = 0
    Cl    = 0
    Cl(f) = 0
    Cl(r) = 0

Time = 0.11

Courant Number mean: 0.0271994 max: 0.661322
smoothSolver:  Solving for Ux, Initial residual = 0.00114723, Final residual = 5.45599e-08, No Iterations 3
smoothSolver:  Solving for Uy, Initial residual = 0.00700165, Final residual = 3.43586e-08, No Iterations 4
smoothSolver:  Solving for Uz, Initial residual = 0.00387631, Final residual = 5.36975e-08, No Iterations 4
DICPCG:  Solving for p, Initial residual = 0.0172801, Final residual = 8.66373e-08, No Iterations 81
time step continuity errors : sum local = 2.15982e-11, global = 1.2822e-13, cumulative = -1.07383e-11
DICPCG:  Solving for p, Initial residual = 0.00208145, Final residual = 7.95672e-08, No Iterations 78
time step continuity errors : sum local = 1.98095e-11, global = 2.27502e-14, cumulative = -1.07155e-11
ExecutionTime = 0.82 s  ClockTime = 7 s

forces forces write:
    sum of forces:
        pressure : (0 0 0)
        viscous  : (0 0 0)
        porous   : (0 0 0)
    sum of moments:
        pressure : (0 0 0)
        viscous  : (0 0 0)
        porous   : (0 0 0)

forceCoeffs forceCoeffs write:
    Cm    = 0
    Cd    = 0
    Cl    = 0
    Cl(f) = 0
    Cl(r) = 0

Time = 0.1125

Courant Number mean: 0.0272166 max: 0.665118
smoothSolver:  Solving for Ux, Initial residual = 0.0011389, Final residual = 5.42967e-08, No Iterations 3
smoothSolver:  Solving for Uy, Initial residual = 0.00694807, Final residual = 3.48936e-08, No Iterations 4
smoothSolver:  Solving for Uz, Initial residual = 0.00372794, Final residual = 5.32427e-08, No Iterations 4
DICPCG:  Solving for p, Initial residual = 0.017932, Final residual = 8.38815e-08, No Iterations 82
time step continuity errors : sum local = 2.08682e-11, global = -1.31991e-13, cumulative = -1.08475e-11
DICPCG:  Solving for p, Initial residual = 0.00205636, Final residual = 7.06937e-08, No Iterations 78
time step continuity errors : sum local = 1.75937e-11, global = -7.88616e-14, cumulative = -1.09264e-11
ExecutionTime = 0.83 s  ClockTime = 7 s

forces forces write:
    sum of forces:
        pressure : (0 0 0)
        viscous  : (0 0 0)
        porous   : (0 0 0)
    sum of moments:
        pressure : (0 0 0)
        viscous  : (0 0 0)
        porous   : (0 0 0)

forceCoeffs forceCoeffs write:
    Cm    = 0
    Cd    = 0
    Cl    = 0
    Cl(f) = 0
    Cl(r) = 0

Time = 0.115

Courant Number mean: 0.0272373 max: 0.668152
smoothSolver:  Solving for Ux, Initial residual = 0.00112865, Final residual = 5.42168e-08, No Iterations 3
smoothSolver:  Solving for Uy, Initial residual = 0.00705042, Final residual = 3.5292e-08, No Iterations 4
smoothSolver:  Solving for Uz, Initial residual = 0.003548, Final residual = 5.23517e-08, No Iterations 4
DICPCG:  Solving for p, Initial residual = 0.0202435, Final residual = 6.52589e-08, No Iterations 83
time step continuity errors : sum local = 1.6182e-11, global = -2.4334e-13, cumulative = -1.11697e-11
DICPCG:  Solving for p, Initial residual = 0.00210427, Final residual = 8.6847e-08, No Iterations 78
time step continuity errors : sum local = 2.15046e-11, global = 2.74432e-13, cumulative = -1.08953e-11
ExecutionTime = 0.85 s  ClockTime = 7 s

forces forces write:
    sum of forces:
        pressure : (0 0 0)
        viscous  : (0 0 0)
        porous   : (0 0 0)
    sum of moments:
        pressure : (0 0 0)
        viscous  : (0 0 0)
        porous   : (0 0 0)

forceCoeffs forceCoeffs write:
    Cm    = 0
    Cd    = 0
    Cl    = 0
    Cl(f) = 0
    Cl(r) = 0

Time = 0.1175

Courant Number mean: 0.0272961 max: 0.67053
smoothSolver:  Solving for Ux, Initial residual = 0.00111671, Final residual = 5.42061e-08, No Iterations 3
smoothSolver:  Solving for Uy, Initial residual = 0.0073727, Final residual = 3.56705e-08, No Iterations 4
smoothSolver:  Solving for Uz, Initial residual = 0.00349955, Final residual = 5.15223e-08, No Iterations 4
DICPCG:  Solving for p, Initial residual = 0.0224845, Final residual = 5.93858e-08, No Iterations 83
time step continuity errors : sum local = 1.46706e-11, global = -1.85852e-13, cumulative = -1.10811e-11
DICPCG:  Solving for p, Initial residual = 0.00206997, Final residual = 9.17184e-08, No Iterations 78
time step continuity errors : sum local = 2.26429e-11, global = 3.4009e-13, cumulative = -1.0741e-11
ExecutionTime = 0.86 s  ClockTime = 7 s

forces forces write:
    sum of forces:
        pressure : (0 0 0)
        viscous  : (0 0 0)
        porous   : (0 0 0)
    sum of moments:
        pressure : (0 0 0)
        viscous  : (0 0 0)
        porous   : (0 0 0)

forceCoeffs forceCoeffs write:
    Cm    = 0
    Cd    = 0
    Cl    = 0
    Cl(f) = 0
    Cl(r) = 0

Time = 0.12

Courant Number mean: 0.0273673 max: 0.672414
smoothSolver:  Solving for Ux, Initial residual = 0.00110839, Final residual = 5.38544e-08, No Iterations 3
smoothSolver:  Solving for Uy, Initial residual = 0.00746821, Final residual = 3.55747e-08, No Iterations 4
smoothSolver:  Solving for Uz, Initial residual = 0.0034845, Final residual = 5.06025e-08, No Iterations 4
DICPCG:  Solving for p, Initial residual = 0.022511, Final residual = 9.9622e-08, No Iterations 82
time step continuity errors : sum local = 2.45257e-11, global = 1.58071e-14, cumulative = -1.07252e-11
DICPCG:  Solving for p, Initial residual = 0.00211152, Final residual = 9.41089e-08, No Iterations 78
time step continuity errors : sum local = 2.31293e-11, global = 3.06041e-13, cumulative = -1.04192e-11
ExecutionTime = 0.88 s  ClockTime = 7 s

forces forces write:
    sum of forces:
        pressure : (0 0 0)
        viscous  : (0 0 0)
        porous   : (0 0 0)
    sum of moments:
        pressure : (0 0 0)
        viscous  : (0 0 0)
        porous   : (0 0 0)

forceCoeffs forceCoeffs write:
    Cm    = 0
    Cd    = 0
    Cl    = 0
    Cl(f) = 0
    Cl(r) = 0

Time = 0.1225

Courant Number mean: 0.0274407 max: 0.674058
smoothSolver:  Solving for Ux, Initial residual = 0.00110008, Final residual = 5.35344e-08, No Iterations 3
smoothSolver:  Solving for Uy, Initial residual = 0.0074524, Final residual = 3.51328e-08, No Iterations 4
smoothSolver:  Solving for Uz, Initial residual = 0.00336081, Final residual = 4.98552e-08, No Iterations 4
DICPCG:  Solving for p, Initial residual = 0.0204177, Final residual = 8.59378e-08, No Iterations 82
time step continuity errors : sum local = 2.10718e-11, global = -4.46116e-14, cumulative = -1.04638e-11
DICPCG:  Solving for p, Initial residual = 0.00210344, Final residual = 5.71982e-08, No Iterations 79
time step continuity errors : sum local = 1.40032e-11, global = 2.92254e-13, cumulative = -1.01715e-11
ExecutionTime = 0.89 s  ClockTime = 7 s

forces forces write:
    sum of forces:
        pressure : (0 0 0)
        viscous  : (0 0 0)
        porous   : (0 0 0)
    sum of moments:
        pressure : (0 0 0)
        viscous  : (0 0 0)
        porous   : (0 0 0)

forceCoeffs forceCoeffs write:
    Cm    = 0
    Cd    = 0
    Cl    = 0
    Cl(f) = 0
    Cl(r) = 0

Time = 0.125

Courant Number mean: 0.0275226 max: 0.677125
smoothSolver:  Solving for Ux, Initial residual = 0.00108922, Final residual = 5.31068e-08, No Iterations 3
smoothSolver:  Solving for Uy, Initial residual = 0.00758883, Final residual = 3.4489e-08, No Iterations 4
smoothSolver:  Solving for Uz, Initial residual = 0.00325323, Final residual = 4.8927e-08, No Iterations 4
DICPCG:  Solving for p, Initial residual = 0.0163936, Final residual = 5.02884e-08, No Iterations 83
time step continuity errors : sum local = 1.23303e-11, global = -6.89527e-14, cumulative = -1.02405e-11
DICPCG:  Solving for p, Initial residual = 0.00205956, Final residual = 5.87545e-08, No Iterations 79
time step continuity errors : sum local = 1.4401e-11, global = 3.29808e-13, cumulative = -9.91068e-12
ExecutionTime = 0.9 s  ClockTime = 7 s

forces forces write:
    sum of forces:
        pressure : (0 0 0)
        viscous  : (0 0 0)
        porous   : (0 0 0)
    sum of moments:
        pressure : (0 0 0)
        viscous  : (0 0 0)
        porous   : (0 0 0)

forceCoeffs forceCoeffs write:
    Cm    = 0
    Cd    = 0
    Cl    = 0
    Cl(f) = 0
    Cl(r) = 0

Time = 0.1275

Courant Number mean: 0.0276045 max: 0.679645
smoothSolver:  Solving for Ux, Initial residual = 0.00109217, Final residual = 5.26067e-08, No Iterations 3
smoothSolver:  Solving for Uy, Initial residual = 0.00738753, Final residual = 3.39581e-08, No Iterations 4
smoothSolver:  Solving for Uz, Initial residual = 0.00308648, Final residual = 4.80957e-08, No Iterations 4
DICPCG:  Solving for p, Initial residual = 0.0150036, Final residual = 8.32275e-08, No Iterations 82
time step continuity errors : sum local = 2.04047e-11, global = 8.27686e-14, cumulative = -9.82791e-12
DICPCG:  Solving for p, Initial residual = 0.0021272, Final residual = 6.35065e-08, No Iterations 79
time step continuity errors : sum local = 1.55421e-11, global = 3.95422e-13, cumulative = -9.43249e-12
ExecutionTime = 0.92 s  ClockTime = 7 s

forces forces write:
    sum of forces:
        pressure : (0 0 0)
        viscous  : (0 0 0)
        porous   : (0 0 0)
    sum of moments:
        pressure : (0 0 0)
        viscous  : (0 0 0)
        porous   : (0 0 0)

forceCoeffs forceCoeffs write:
    Cm    = 0
    Cd    = 0
    Cl    = 0
    Cl(f) = 0
    Cl(r) = 0

Time = 0.13

Courant Number mean: 0.0276855 max: 0.681772
smoothSolver:  Solving for Ux, Initial residual = 0.00109277, Final residual = 5.18967e-08, No Iterations 3
smoothSolver:  Solving for Uy, Initial residual = 0.00716756, Final residual = 3.33122e-08, No Iterations 4
smoothSolver:  Solving for Uz, Initial residual = 0.00296564, Final residual = 4.71403e-08, No Iterations 4
DICPCG:  Solving for p, Initial residual = 0.0155235, Final residual = 9.5847e-08, No Iterations 82
time step continuity errors : sum local = 2.34915e-11, global = 2.07524e-13, cumulative = -9.22496e-12
DICPCG:  Solving for p, Initial residual = 0.00203582, Final residual = 5.83074e-08, No Iterations 79
time step continuity errors : sum local = 1.42867e-11, global = 2.73683e-13, cumulative = -8.95128e-12
ExecutionTime = 0.93 s  ClockTime = 7 s

forces forces write:
    sum of forces:
        pressure : (0 0 0)
        viscous  : (0 0 0)
        porous   : (0 0 0)
    sum of moments:
        pressure : (0 0 0)
        viscous  : (0 0 0)
        porous   : (0 0 0)

forceCoeffs forceCoeffs write:
    Cm    = 0
    Cd    = 0
    Cl    = 0
    Cl(f) = 0
    Cl(r) = 0

Time = 0.1325

Courant Number mean: 0.0277655 max: 0.683685
smoothSolver:  Solving for Ux, Initial residual = 0.00109398, Final residual = 5.12723e-08, No Iterations 3
smoothSolver:  Solving for Uy, Initial residual = 0.00695209, Final residual = 3.26145e-08, No Iterations 4
smoothSolver:  Solving for Uz, Initial residual = 0.00284014, Final residual = 4.63677e-08, No Iterations 4
DICPCG:  Solving for p, Initial residual = 0.0178545, Final residual = 7.62885e-08, No Iterations 82
time step continuity errors : sum local = 1.87682e-11, global = 2.35942e-13, cumulative = -8.71534e-12
DICPCG:  Solving for p, Initial residual = 0.00206315, Final residual = 5.2252e-08, No Iterations 79
time step continuity errors : sum local = 1.28892e-11, global = 2.30425e-13, cumulative = -8.48491e-12
ExecutionTime = 0.95 s  ClockTime = 7 s

forces forces write:
    sum of forces:
        pressure : (0 0 0)
        viscous  : (0 0 0)
        porous   : (0 0 0)
    sum of moments:
        pressure : (0 0 0)
        viscous  : (0 0 0)
        porous   : (0 0 0)

forceCoeffs forceCoeffs write:
    Cm    = 0
    Cd    = 0
    Cl    = 0
    Cl(f) = 0
    Cl(r) = 0

Time = 0.135

Courant Number mean: 0.0278458 max: 0.685571
smoothSolver:  Solving for Ux, Initial residual = 0.00109791, Final residual = 5.04324e-08, No Iterations 3
smoothSolver:  Solving for Uy, Initial residual = 0.00674633, Final residual = 3.18693e-08, No Iterations 4
smoothSolver:  Solving for Uz, Initial residual = 0.00272296, Final residual = 4.54433e-08, No Iterations 4
DICPCG:  Solving for p, Initial residual = 0.0161851, Final residual = 6.03937e-08, No Iterations 82
time step continuity errors : sum local = 1.48722e-11, global = -2.88142e-14, cumulative = -8.51373e-12
DICPCG:  Solving for p, Initial residual = 0.00209866, Final residual = 8.01101e-08, No Iterations 78
time step continuity errors : sum local = 1.96672e-11, global = 1.18326e-13, cumulative = -8.3954e-12
ExecutionTime = 0.96 s  ClockTime = 7 s

forces forces write:
    sum of forces:
        pressure : (0 0 0)
        viscous  : (0 0 0)
        porous   : (0 0 0)
    sum of moments:
        pressure : (0 0 0)
        viscous  : (0 0 0)
        porous   : (0 0 0)

forceCoeffs forceCoeffs write:
    Cm    = 0
    Cd    = 0
    Cl    = 0
    Cl(f) = 0
    Cl(r) = 0

Time = 0.1375

Courant Number mean: 0.0279287 max: 0.688629
smoothSolver:  Solving for Ux, Initial residual = 0.00109877, Final residual = 4.9476e-08, No Iterations 3
smoothSolver:  Solving for Uy, Initial residual = 0.00656702, Final residual = 3.12467e-08, No Iterations 4
smoothSolver:  Solving for Uz, Initial residual = 0.00260388, Final residual = 4.46632e-08, No Iterations 4
DICPCG:  Solving for p, Initial residual = 0.0194578, Final residual = 6.61209e-08, No Iterations 82
time step continuity errors : sum local = 1.61354e-11, global = 5.15573e-14, cumulative = -8.34385e-12
DICPCG:  Solving for p, Initial residual = 0.00212291, Final residual = 6.82161e-08, No Iterations 78
time step continuity errors : sum local = 1.65239e-11, global = 5.45561e-14, cumulative = -8.28929e-12
ExecutionTime = 0.98 s  ClockTime = 7 s

forces forces write:
    sum of forces:
        pressure : (0 0 0)
        viscous  : (0 0 0)
        porous   : (0 0 0)
    sum of moments:
        pressure : (0 0 0)
        viscous  : (0 0 0)
        porous   : (0 0 0)

forceCoeffs forceCoeffs write:
    Cm    = 0
    Cd    = 0
    Cl    = 0
    Cl(f) = 0
    Cl(r) = 0

Time = 0.14

Courant Number mean: 0.02801 max: 0.69301
smoothSolver:  Solving for Ux, Initial residual = 0.00109666, Final residual = 4.86074e-08, No Iterations 3
smoothSolver:  Solving for Uy, Initial residual = 0.00639877, Final residual = 3.0494e-08, No Iterations 4
smoothSolver:  Solving for Uz, Initial residual = 0.0025261, Final residual = 4.4012e-08, No Iterations 4
DICPCG:  Solving for p, Initial residual = 0.014176, Final residual = 5.95373e-08, No Iterations 82
time step continuity errors : sum local = 1.44219e-11, global = 8.1769e-14, cumulative = -8.20752e-12
DICPCG:  Solving for p, Initial residual = 0.00199658, Final residual = 6.31862e-08, No Iterations 78
time step continuity errors : sum local = 1.52932e-11, global = 1.58101e-13, cumulative = -8.04942e-12
ExecutionTime = 0.99 s  ClockTime = 7 s

forces forces write:
    sum of forces:
        pressure : (0 0 0)
        viscous  : (0 0 0)
        porous   : (0 0 0)
    sum of moments:
        pressure : (0 0 0)
        viscous  : (0 0 0)
        porous   : (0 0 0)

forceCoeffs forceCoeffs write:
    Cm    = 0
    Cd    = 0
    Cl    = 0
    Cl(f) = 0
    Cl(r) = 0

Time = 0.1425

Courant Number mean: 0.0280906 max: 0.697399
smoothSolver:  Solving for Ux, Initial residual = 0.00109325, Final residual = 4.77728e-08, No Iterations 3
smoothSolver:  Solving for Uy, Initial residual = 0.00622304, Final residual = 2.98622e-08, No Iterations 4
smoothSolver:  Solving for Uz, Initial residual = 0.00244239, Final residual = 4.32611e-08, No Iterations 4
DICPCG:  Solving for p, Initial residual = 0.014346, Final residual = 6.18533e-08, No Iterations 82
time step continuity errors : sum local = 1.49896e-11, global = -2.38358e-14, cumulative = -8.07326e-12
DICPCG:  Solving for p, Initial residual = 0.00191948, Final residual = 6.77737e-08, No Iterations 78
time step continuity errors : sum local = 1.64381e-11, global = 2.73957e-13, cumulative = -7.7993e-12
ExecutionTime = 1 s  ClockTime = 7 s

forces forces write:
    sum of forces:
        pressure : (0 0 0)
        viscous  : (0 0 0)
        porous   : (0 0 0)
    sum of moments:
        pressure : (0 0 0)
        viscous  : (0 0 0)
        porous   : (0 0 0)

forceCoeffs forceCoeffs write:
    Cm    = 0
    Cd    = 0
    Cl    = 0
    Cl(f) = 0
    Cl(r) = 0

Time = 0.145

Courant Number mean: 0.02817 max: 0.701725
smoothSolver:  Solving for Ux, Initial residual = 0.00109191, Final residual = 4.71028e-08, No Iterations 3
smoothSolver:  Solving for Uy, Initial residual = 0.00604483, Final residual = 2.92681e-08, No Iterations 4
smoothSolver:  Solving for Uz, Initial residual = 0.00238929, Final residual = 4.26644e-08, No Iterations 4
DICPCG:  Solving for p, Initial residual = 0.0141649, Final residual = 6.73934e-08, No Iterations 82
time step continuity errors : sum local = 1.63765e-11, global = 1.72339e-14, cumulative = -7.78206e-12
DICPCG:  Solving for p, Initial residual = 0.00192404, Final residual = 8.57707e-08, No Iterations 77
time step continuity errors : sum local = 2.08759e-11, global = 2.92792e-13, cumulative = -7.48927e-12
ExecutionTime = 1.02 s  ClockTime = 7 s

forces forces write:
    sum of forces:
        pressure : (0 0 0)
        viscous  : (0 0 0)
        porous   : (0 0 0)
    sum of moments:
        pressure : (0 0 0)
        viscous  : (0 0 0)
        porous   : (0 0 0)

forceCoeffs forceCoeffs write:
    Cm    = 0
    Cd    = 0
    Cl    = 0
    Cl(f) = 0
    Cl(r) = 0

Time = 0.1475

Courant Number mean: 0.0282488 max: 0.705946
smoothSolver:  Solving for Ux, Initial residual = 0.00109369, Final residual = 4.61962e-08, No Iterations 3
smoothSolver:  Solving for Uy, Initial residual = 0.00587451, Final residual = 2.87764e-08, No Iterations 4
smoothSolver:  Solving for Uz, Initial residual = 0.00236642, Final residual = 4.19847e-08, No Iterations 4
DICPCG:  Solving for p, Initial residual = 0.0138402, Final residual = 8.36042e-08, No Iterations 82
time step continuity errors : sum local = 2.03836e-11, global = -3.65098e-14, cumulative = -7.52578e-12
DICPCG:  Solving for p, Initial residual = 0.00190628, Final residual = 9.13155e-08, No Iterations 76
time step continuity errors : sum local = 2.23035e-11, global = -3.78904e-13, cumulative = -7.90469e-12
ExecutionTime = 1.03 s  ClockTime = 7 s

forces forces write:
    sum of forces:
        pressure : (0 0 0)
        viscous  : (0 0 0)
        porous   : (0 0 0)
    sum of moments:
        pressure : (0 0 0)
        viscous  : (0 0 0)
        porous   : (0 0 0)

forceCoeffs forceCoeffs write:
    Cm    = 0
    Cd    = 0
    Cl    = 0
    Cl(f) = 0
    Cl(r) = 0

Time = 0.15

Courant Number mean: 0.0283271 max: 0.710052
smoothSolver:  Solving for Ux, Initial residual = 0.00109555, Final residual = 4.53887e-08, No Iterations 3
smoothSolver:  Solving for Uy, Initial residual = 0.00571094, Final residual = 2.8313e-08, No Iterations 4
smoothSolver:  Solving for Uz, Initial residual = 0.00230045, Final residual = 4.13963e-08, No Iterations 4
DICPCG:  Solving for p, Initial residual = 0.0142365, Final residual = 9.38168e-08, No Iterations 82
time step continuity errors : sum local = 2.29642e-11, global = -7.23568e-14, cumulative = -7.97704e-12
DICPCG:  Solving for p, Initial residual = 0.0018704, Final residual = 6.06994e-08, No Iterations 76
time step continuity errors : sum local = 1.48949e-11, global = -1.65053e-13, cumulative = -8.1421e-12
ExecutionTime = 1.05 s  ClockTime = 7 s

forces forces write:
    sum of forces:
        pressure : (0 0 0)
        viscous  : (0 0 0)
        porous   : (0 0 0)
    sum of moments:
        pressure : (0 0 0)
        viscous  : (0 0 0)
        porous   : (0 0 0)

forceCoeffs forceCoeffs write:
    Cm    = 0
    Cd    = 0
    Cl    = 0
    Cl(f) = 0
    Cl(r) = 0

Time = 0.1525

Courant Number mean: 0.0284043 max: 0.71406
smoothSolver:  Solving for Ux, Initial residual = 0.00109579, Final residual = 4.46842e-08, No Iterations 3
smoothSolver:  Solving for Uy, Initial residual = 0.00554811, Final residual = 2.78384e-08, No Iterations 4
smoothSolver:  Solving for Uz, Initial residual = 0.00223911, Final residual = 4.0897e-08, No Iterations 4
DICPCG:  Solving for p, Initial residual = 0.015971, Final residual = 9.17069e-08, No Iterations 81
time step continuity errors : sum local = 2.26066e-11, global = -4.78502e-13, cumulative = -8.6206e-12
DICPCG:  Solving for p, Initial residual = 0.00186255, Final residual = 9.66802e-08, No Iterations 76
time step continuity errors : sum local = 2.39574e-11, global = 1.16722e-15, cumulative = -8.61943e-12
ExecutionTime = 1.06 s  ClockTime = 7 s

forces forces write:
    sum of forces:
        pressure : (0 0 0)
        viscous  : (0 0 0)
        porous   : (0 0 0)
    sum of moments:
        pressure : (0 0 0)
        viscous  : (0 0 0)
        porous   : (0 0 0)

forceCoeffs forceCoeffs write:
    Cm    = 0
    Cd    = 0
    Cl    = 0
    Cl(f) = 0
    Cl(r) = 0

Time = 0.155

Courant Number mean: 0.0284807 max: 0.718447
smoothSolver:  Solving for Ux, Initial residual = 0.00109667, Final residual = 4.37514e-08, No Iterations 3
smoothSolver:  Solving for Uy, Initial residual = 0.00539114, Final residual = 2.74184e-08, No Iterations 4
[...]
time step continuity errors : sum local = 4.70574e-11, global = -1.95703e-13, cumulative = 2.6214e-10
DICPCG:  Solving for p, Initial residual = 0.000535913, Final residual = 8.58078e-08, No Iterations 74
time step continuity errors : sum local = 4.3389e-11, global = 6.85205e-14, cumulative = 2.62208e-10
ExecutionTime = 20.02 s  ClockTime = 26 s

forces forces write:
    sum of forces:
        pressure : (0 0 0)
        viscous  : (0 0 0)
        porous   : (0 0 0)
    sum of moments:
        pressure : (0 0 0)
        viscous  : (0 0 0)
        porous   : (0 0 0)

forceCoeffs forceCoeffs write:
    Cm    = 0
    Cd    = 0
    Cl    = 0
    Cl(f) = 0
    Cl(r) = 0

Time = 3.4025

Courant Number mean: 0.0589533 max: 1.79832
smoothSolver:  Solving for Ux, Initial residual = 0.00225917, Final residual = 9.28492e-09, No Iterations 3
smoothSolver:  Solving for Uy, Initial residual = 0.00697986, Final residual = 2.18597e-08, No Iterations 3
smoothSolver:  Solving for Uz, Initial residual = 0.00698599, Final residual = 6.98648e-08, No Iterations 4
DICPCG:  Solving for p, Initial residual = 0.0108276, Final residual = 4.70092e-08, No Iterations 82
time step continuity errors : sum local = 2.37658e-11, global = -9.61008e-14, cumulative = 2.62112e-10
DICPCG:  Solving for p, Initial residual = 0.000547991, Final residual = 8.48364e-08, No Iterations 74
time step continuity errors : sum local = 4.29248e-11, global = -1.24524e-13, cumulative = 2.61988e-10
ExecutionTime = 20.03 s  ClockTime = 26 s

forces forces write:
    sum of forces:
        pressure : (0 0 0)
        viscous  : (0 0 0)
        porous   : (0 0 0)
    sum of moments:
        pressure : (0 0 0)
        viscous  : (0 0 0)
        porous   : (0 0 0)

forceCoeffs forceCoeffs write:
    Cm    = 0
    Cd    = 0
    Cl    = 0
    Cl(f) = 0
    Cl(r) = 0

Time = 3.405

Courant Number mean: 0.0589676 max: 1.82241
smoothSolver:  Solving for Ux, Initial residual = 0.00226001, Final residual = 9.44072e-09, No Iterations 3
smoothSolver:  Solving for Uy, Initial residual = 0.0069879, Final residual = 2.19739e-08, No Iterations 3
smoothSolver:  Solving for Uz, Initial residual = 0.00622803, Final residual = 6.34994e-08, No Iterations 4
DICPCG:  Solving for p, Initial residual = 0.0103616, Final residual = 9.25046e-08, No Iterations 81
time step continuity errors : sum local = 4.68024e-11, global = -1.30129e-13, cumulative = 2.61858e-10
DICPCG:  Solving for p, Initial residual = 0.000540133, Final residual = 8.21638e-08, No Iterations 74
time step continuity errors : sum local = 4.16106e-11, global = -3.03654e-16, cumulative = 2.61857e-10
ExecutionTime = 20.05 s  ClockTime = 26 s

forces forces write:
    sum of forces:
        pressure : (0 0 0)
        viscous  : (0 0 0)
        porous   : (0 0 0)
    sum of moments:
        pressure : (0 0 0)
        viscous  : (0 0 0)
        porous   : (0 0 0)

forceCoeffs forceCoeffs write:
    Cm    = 0
    Cd    = 0
    Cl    = 0
    Cl(f) = 0
    Cl(r) = 0

Time = 3.4075

Courant Number mean: 0.058983 max: 1.84675
smoothSolver:  Solving for Ux, Initial residual = 0.0022616, Final residual = 9.59661e-09, No Iterations 3
smoothSolver:  Solving for Uy, Initial residual = 0.00699018, Final residual = 2.22084e-08, No Iterations 3
smoothSolver:  Solving for Uz, Initial residual = 0.00561106, Final residual = 5.85513e-08, No Iterations 4
DICPCG:  Solving for p, Initial residual = 0.0125705, Final residual = 9.05882e-08, No Iterations 81
time step continuity errors : sum local = 4.57754e-11, global = 8.30631e-14, cumulative = 2.6194e-10
DICPCG:  Solving for p, Initial residual = 0.000574791, Final residual = 8.47211e-08, No Iterations 74
time step continuity errors : sum local = 4.27709e-11, global = -1.34904e-13, cumulative = 2.61806e-10
ExecutionTime = 20.06 s  ClockTime = 26 s

forces forces write:
    sum of forces:
        pressure : (0 0 0)
        viscous  : (0 0 0)
        porous   : (0 0 0)
    sum of moments:
        pressure : (0 0 0)
        viscous  : (0 0 0)
        porous   : (0 0 0)

forceCoeffs forceCoeffs write:
    Cm    = 0
    Cd    = 0
    Cl    = 0
    Cl(f) = 0
    Cl(r) = 0

Time = 3.41

Courant Number mean: 0.0589965 max: 1.87107
smoothSolver:  Solving for Ux, Initial residual = 0.00226466, Final residual = 9.7536e-09, No Iterations 3
smoothSolver:  Solving for Uy, Initial residual = 0.00698699, Final residual = 2.24922e-08, No Iterations 3
smoothSolver:  Solving for Uz, Initial residual = 0.00509979, Final residual = 5.45992e-08, No Iterations 4
DICPCG:  Solving for p, Initial residual = 0.0103993, Final residual = 7.84917e-08, No Iterations 81
time step continuity errors : sum local = 3.96048e-11, global = 1.33599e-13, cumulative = 2.61939e-10
DICPCG:  Solving for p, Initial residual = 0.000572143, Final residual = 8.97924e-08, No Iterations 74
time step continuity errors : sum local = 4.53511e-11, global = 5.60441e-14, cumulative = 2.61995e-10
ExecutionTime = 20.08 s  ClockTime = 26 s

forces forces write:
    sum of forces:
        pressure : (0 0 0)
        viscous  : (0 0 0)
        porous   : (0 0 0)
    sum of moments:
        pressure : (0 0 0)
        viscous  : (0 0 0)
        porous   : (0 0 0)

forceCoeffs forceCoeffs write:
    Cm    = 0
    Cd    = 0
    Cl    = 0
    Cl(f) = 0
    Cl(r) = 0

Time = 3.4125

Courant Number mean: 0.0590053 max: 1.89509
smoothSolver:  Solving for Ux, Initial residual = 0.00226786, Final residual = 9.90881e-09, No Iterations 3
smoothSolver:  Solving for Uy, Initial residual = 0.0069878, Final residual = 2.28952e-08, No Iterations 3
smoothSolver:  Solving for Uz, Initial residual = 0.00467448, Final residual = 5.15117e-08, No Iterations 4
DICPCG:  Solving for p, Initial residual = 0.0101101, Final residual = 8.08671e-08, No Iterations 81
time step continuity errors : sum local = 4.08487e-11, global = 1.52208e-13, cumulative = 2.62147e-10
DICPCG:  Solving for p, Initial residual = 0.000617652, Final residual = 7.79275e-08, No Iterations 74
time step continuity errors : sum local = 3.94354e-11, global = -2.07496e-13, cumulative = 2.6194e-10
ExecutionTime = 20.09 s  ClockTime = 26 s

forces forces write:
    sum of forces:
        pressure : (0 0 0)
        viscous  : (0 0 0)
        porous   : (0 0 0)
    sum of moments:
        pressure : (0 0 0)
        viscous  : (0 0 0)
        porous   : (0 0 0)

forceCoeffs forceCoeffs write:
    Cm    = 0
    Cd    = 0
    Cl    = 0
    Cl(f) = 0
    Cl(r) = 0

Time = 3.415

Courant Number mean: 0.0590145 max: 1.91846
smoothSolver:  Solving for Ux, Initial residual = 0.0022712, Final residual = 1.00778e-08, No Iterations 3
smoothSolver:  Solving for Uy, Initial residual = 0.00698959, Final residual = 2.35351e-08, No Iterations 3
smoothSolver:  Solving for Uz, Initial residual = 0.00431493, Final residual = 4.92587e-08, No Iterations 4
DICPCG:  Solving for p, Initial residual = 0.0110245, Final residual = 8.59798e-08, No Iterations 79
time step continuity errors : sum local = 4.35165e-11, global = -2.24751e-13, cumulative = 2.61715e-10
DICPCG:  Solving for p, Initial residual = 0.000630905, Final residual = 5.95441e-08, No Iterations 75
time step continuity errors : sum local = 3.01809e-11, global = 2.47737e-13, cumulative = 2.61963e-10
ExecutionTime = 20.1 s  ClockTime = 26 s

forces forces write:
    sum of forces:
        pressure : (0 0 0)
        viscous  : (0 0 0)
        porous   : (0 0 0)
    sum of moments:
        pressure : (0 0 0)
        viscous  : (0 0 0)
        porous   : (0 0 0)

forceCoeffs forceCoeffs write:
    Cm    = 0
    Cd    = 0
    Cl    = 0
    Cl(f) = 0
    Cl(r) = 0

Time = 3.4175

Courant Number mean: 0.059028 max: 1.94083
smoothSolver:  Solving for Ux, Initial residual = 0.0022752, Final residual = 1.02673e-08, No Iterations 3
smoothSolver:  Solving for Uy, Initial residual = 0.00700141, Final residual = 2.41504e-08, No Iterations 3
smoothSolver:  Solving for Uz, Initial residual = 0.0040021, Final residual = 4.77771e-08, No Iterations 4
DICPCG:  Solving for p, Initial residual = 0.0123631, Final residual = 8.27651e-08, No Iterations 80
time step continuity errors : sum local = 4.19819e-11, global = 3.0175e-14, cumulative = 2.61993e-10
DICPCG:  Solving for p, Initial residual = 0.000676446, Final residual = 9.55948e-08, No Iterations 76
time step continuity errors : sum local = 4.86902e-11, global = -2.92401e-13, cumulative = 2.61701e-10
ExecutionTime = 20.12 s  ClockTime = 26 s

forces forces write:
    sum of forces:
        pressure : (0 0 0)
        viscous  : (0 0 0)
        porous   : (0 0 0)
    sum of moments:
        pressure : (0 0 0)
        viscous  : (0 0 0)
        porous   : (0 0 0)

forceCoeffs forceCoeffs write:
    Cm    = 0
    Cd    = 0
    Cl    = 0
    Cl(f) = 0
    Cl(r) = 0

Time = 3.42

Courant Number mean: 0.0590463 max: 1.96176
smoothSolver:  Solving for Ux, Initial residual = 0.00228089, Final residual = 1.03619e-08, No Iterations 3
smoothSolver:  Solving for Uy, Initial residual = 0.00701981, Final residual = 2.53074e-08, No Iterations 3
smoothSolver:  Solving for Uz, Initial residual = 0.00373229, Final residual = 4.71951e-08, No Iterations 4
DICPCG:  Solving for p, Initial residual = 0.0112037, Final residual = 9.98244e-08, No Iterations 80
time step continuity errors : sum local = 5.08381e-11, global = -2.46135e-13, cumulative = 2.61455e-10
DICPCG:  Solving for p, Initial residual = 0.00065659, Final residual = 8.47954e-08, No Iterations 78
time step continuity errors : sum local = 4.35376e-11, global = -8.2836e-13, cumulative = 2.60626e-10
ExecutionTime = 20.13 s  ClockTime = 26 s

forces forces write:
    sum of forces:
        pressure : (0 0 0)
        viscous  : (0 0 0)
        porous   : (0 0 0)
    sum of moments:
        pressure : (0 0 0)
        viscous  : (0 0 0)
        porous   : (0 0 0)

forceCoeffs forceCoeffs write:
    Cm    = 0
    Cd    = 0
    Cl    = 0
    Cl(f) = 0
    Cl(r) = 0

Time = 3.4225

Courant Number mean: 0.0590654 max: 1.98074
smoothSolver:  Solving for Ux, Initial residual = 0.00228785, Final residual = 1.03229e-08, No Iterations 3
smoothSolver:  Solving for Uy, Initial residual = 0.00702383, Final residual = 2.69255e-08, No Iterations 3
smoothSolver:  Solving for Uz, Initial residual = 0.00349671, Final residual = 4.79481e-08, No Iterations 4
DICPCG:  Solving for p, Initial residual = 0.0122416, Final residual = 8.56909e-08, No Iterations 80
time step continuity errors : sum local = 4.38785e-11, global = -2.03977e-13, cumulative = 2.60422e-10
DICPCG:  Solving for p, Initial residual = 0.000712632, Final residual = 8.53397e-08, No Iterations 77
time step continuity errors : sum local = 4.38535e-11, global = -1.03075e-12, cumulative = 2.59391e-10
ExecutionTime = 20.15 s  ClockTime = 26 s

forces forces write:
    sum of forces:
        pressure : (0 0 0)
        viscous  : (0 0 0)
        porous   : (0 0 0)
    sum of moments:
        pressure : (0 0 0)
        viscous  : (0 0 0)
        porous   : (0 0 0)

forceCoeffs forceCoeffs write:
    Cm    = 0
    Cd    = 0
    Cl    = 0
    Cl(f) = 0
    Cl(r) = 0

Time = 3.425

Courant Number mean: 0.0590832 max: 1.99722
smoothSolver:  Solving for Ux, Initial residual = 0.00229453, Final residual = 1.04331e-08, No Iterations 3
smoothSolver:  Solving for Uy, Initial residual = 0.00702254, Final residual = 2.86563e-08, No Iterations 3
smoothSolver:  Solving for Uz, Initial residual = 0.00329197, Final residual = 5.07608e-08, No Iterations 4
DICPCG:  Solving for p, Initial residual = 0.010189, Final residual = 8.06564e-08, No Iterations 79
time step continuity errors : sum local = 4.14442e-11, global = 5.6437e-14, cumulative = 2.59448e-10
DICPCG:  Solving for p, Initial residual = 0.000695504, Final residual = 9.43457e-08, No Iterations 78
time step continuity errors : sum local = 4.88184e-11, global = -9.21283e-13, cumulative = 2.58527e-10
ExecutionTime = 20.16 s  ClockTime = 26 s

forces forces write:
    sum of forces:
        pressure : (0 0 0)
        viscous  : (0 0 0)
        porous   : (0 0 0)
    sum of moments:
        pressure : (0 0 0)
        viscous  : (0 0 0)
        porous   : (0 0 0)

forceCoeffs forceCoeffs write:
    Cm    = 0
    Cd    = 0
    Cl    = 0
    Cl(f) = 0
    Cl(r) = 0

Time = 3.4275

Courant Number mean: 0.0591007 max: 2.01059
smoothSolver:  Solving for Ux, Initial residual = 0.00230154, Final residual = 1.06082e-08, No Iterations 3
smoothSolver:  Solving for Uy, Initial residual = 0.00702367, Final residual = 3.16723e-08, No Iterations 3
smoothSolver:  Solving for Uz, Initial residual = 0.00311461, Final residual = 5.72877e-08, No Iterations 4
DICPCG:  Solving for p, Initial residual = 0.010734, Final residual = 8.17509e-08, No Iterations 79
time step continuity errors : sum local = 4.23177e-11, global = 3.39401e-14, cumulative = 2.58561e-10
DICPCG:  Solving for p, Initial residual = 0.000764769, Final residual = 5.2035e-08, No Iterations 79
time step continuity errors : sum local = 2.72138e-11, global = -3.86687e-13, cumulative = 2.58174e-10
ExecutionTime = 20.18 s  ClockTime = 26 s

forces forces write:
    sum of forces:
        pressure : (0 0 0)
        viscous  : (0 0 0)
        porous   : (0 0 0)
    sum of moments:
        pressure : (0 0 0)
        viscous  : (0 0 0)
        porous   : (0 0 0)

forceCoeffs forceCoeffs write:
    Cm    = 0
    Cd    = 0
    Cl    = 0
    Cl(f) = 0
    Cl(r) = 0

Time = 3.43

Courant Number mean: 0.0591187 max: 2.0202
smoothSolver:  Solving for Ux, Initial residual = 0.00230975, Final residual = 1.08646e-08, No Iterations 3
smoothSolver:  Solving for Uy, Initial residual = 0.00702663, Final residual = 3.51807e-08, No Iterations 3
smoothSolver:  Solving for Uz, Initial residual = 0.00296885, Final residual = 7.30478e-08, No Iterations 4
DICPCG:  Solving for p, Initial residual = 0.0118841, Final residual = 5.5162e-08, No Iterations 81
time step continuity errors : sum local = 2.88799e-11, global = 1.75927e-13, cumulative = 2.5835e-10
DICPCG:  Solving for p, Initial residual = 0.000852697, Final residual = 5.74834e-08, No Iterations 80
time step continuity errors : sum local = 3.0867e-11, global = -4.62206e-13, cumulative = 2.57888e-10
ExecutionTime = 20.19 s  ClockTime = 26 s

forces forces write:
    sum of forces:
        pressure : (0 0 0)
        viscous  : (0 0 0)
        porous   : (0 0 0)
    sum of moments:
        pressure : (0 0 0)
        viscous  : (0 0 0)
        porous   : (0 0 0)

forceCoeffs forceCoeffs write:
    Cm    = 0
    Cd    = 0
    Cl    = 0
    Cl(f) = 0
    Cl(r) = 0

Time = 3.4325

Courant Number mean: 0.0591424 max: 2.04078
smoothSolver:  Solving for Ux, Initial residual = 0.00232796, Final residual = 1.18103e-08, No Iterations 3
smoothSolver:  Solving for Uy, Initial residual = 0.00704524, Final residual = 4.56863e-08, No Iterations 3
smoothSolver:  Solving for Uz, Initial residual = 0.0028619, Final residual = 1.44571e-08, No Iterations 5
DICPCG:  Solving for p, Initial residual = 0.013385, Final residual = 5.26436e-08, No Iterations 83
time step continuity errors : sum local = 2.82836e-11, global = 5.5261e-14, cumulative = 2.57943e-10
DICPCG:  Solving for p, Initial residual = 0.00105919, Final residual = 6.9322e-08, No Iterations 80
time step continuity errors : sum local = 3.84548e-11, global = -5.27325e-14, cumulative = 2.5789e-10
ExecutionTime = 20.21 s  ClockTime = 26 s

forces forces write:
    sum of forces:
        pressure : (0 0 0)
        viscous  : (0 0 0)
        porous   : (0 0 0)
    sum of moments:
        pressure : (0 0 0)
        viscous  : (0 0 0)
        porous   : (0 0 0)

forceCoeffs forceCoeffs write:
    Cm    = 0
    Cd    = 0
    Cl    = 0
    Cl(f) = 0
    Cl(r) = 0

Time = 3.435

Courant Number mean: 0.0591721 max: 2.0884
smoothSolver:  Solving for Ux, Initial residual = 0.00235915, Final residual = 1.44681e-08, No Iterations 3
smoothSolver:  Solving for Uy, Initial residual = 0.00707817, Final residual = 6.71735e-08, No Iterations 3
smoothSolver:  Solving for Uz, Initial residual = 0.00278937, Final residual = 4.40865e-08, No Iterations 5
DICPCG:  Solving for p, Initial residual = 0.0118211, Final residual = 9.65869e-08, No Iterations 81
time step continuity errors : sum local = 5.36395e-11, global = -5.30133e-14, cumulative = 2.57837e-10
DICPCG:  Solving for p, Initial residual = 0.00125948, Final residual = 6.78752e-08, No Iterations 81
time step continuity errors : sum local = 3.99782e-11, global = 1.39237e-13, cumulative = 2.57976e-10
ExecutionTime = 20.23 s  ClockTime = 26 s

forces forces write:
    sum of forces:
        pressure : (0 0 0)
        viscous  : (0 0 0)
        porous   : (0 0 0)
    sum of moments:
        pressure : (0 0 0)
        viscous  : (0 0 0)
        porous   : (0 0 0)

forceCoeffs forceCoeffs write:
    Cm    = 0
    Cd    = 0
    Cl    = 0
    Cl(f) = 0
    Cl(r) = 0

Time = 3.4375

Courant Number mean: 0.0592177 max: 2.14606
smoothSolver:  Solving for Ux, Initial residual = 0.00243368, Final residual = 2.27724e-08, No Iterations 3
smoothSolver:  Solving for Uy, Initial residual = 0.00716691, Final residual = 2.64791e-08, No Iterations 4
smoothSolver:  Solving for Uz, Initial residual = 0.00276707, Final residual = 6.79805e-08, No Iterations 6
DICPCG:  Solving for p, Initial residual = 0.0121296, Final residual = 4.94343e-08, No Iterations 84
time step continuity errors : sum local = 2.91911e-11, global = -8.97187e-13, cumulative = 2.57079e-10
DICPCG:  Solving for p, Initial residual = 0.00199418, Final residual = 8.60045e-08, No Iterations 82
time step continuity errors : sum local = 5.76624e-11, global = 7.12244e-13, cumulative = 2.57791e-10
ExecutionTime = 20.24 s  ClockTime = 26 s

forces forces write:
    sum of forces:
        pressure : (0 0 0)
        viscous  : (0 0 0)
        porous   : (0 0 0)
    sum of moments:
        pressure : (0 0 0)
        viscous  : (0 0 0)
        porous   : (0 0 0)

forceCoeffs forceCoeffs write:
    Cm    = 0
    Cd    = 0
    Cl    = 0
    Cl(f) = 0
    Cl(r) = 0

Time = 3.44

Courant Number mean: 0.0592815 max: 2.2254
smoothSolver:  Solving for Ux, Initial residual = 0.00270581, Final residual = 9.47885e-08, No Iterations 3
smoothSolver:  Solving for Uy, Initial residual = 0.00738352, Final residual = 6.84937e-08, No Iterations 6
smoothSolver:  Solving for Uz, Initial residual = 0.00282606, Final residual = 5.82324e-08, No Iterations 11
DICPCG:  Solving for p, Initial residual = 0.0148924, Final residual = 9.1342e-08, No Iterations 84
time step continuity errors : sum local = 6.16837e-11, global = -1.87859e-12, cumulative = 2.55913e-10
DICPCG:  Solving for p, Initial residual = 0.00427795, Final residual = 9.0857e-08, No Iterations 83
time step continuity errors : sum local = 8.7718e-11, global = 1.11262e-12, cumulative = 2.57025e-10
ExecutionTime = 20.25 s  ClockTime = 26 s

forces forces write:
    sum of forces:
        pressure : (0 0 0)
        viscous  : (0 0 0)
        porous   : (0 0 0)
    sum of moments:
        pressure : (0 0 0)
        viscous  : (0 0 0)
        porous   : (0 0 0)

forceCoeffs forceCoeffs write:
    Cm    = 0
    Cd    = 0
    Cl    = 0
    Cl(f) = 0
    Cl(r) = 0

Time = 3.4425

Courant Number mean: 0.0594026 max: 2.82725
#0  Foam::error::printStack(Foam::Ostream&) at ??:?
#1  Foam::sigFpe::sigHandler(int) at ??:?
#2  ? in "/lib64/libpthread.so.0"
#3  Foam::symGaussSeidelSmoother::smooth(Foam::word const&, Foam::Field<double>&, Foam::lduMatrix const&, Foam::Field<double> const&, Foam::FieldField<Foam::Field, double> const&, Foam::UPtrList<Foam::lduInterfaceField const> const&, unsigned char, int) at ??:?
#4  Foam::symGaussSeidelSmoother::smooth(Foam::Field<double>&, Foam::Field<double> const&, unsigned char, int) const at ??:?
#5  Foam::smoothSolver::solve(Foam::Field<double>&, Foam::Field<double> const&, unsigned char) const at ??:?
#6  ? at ??:?
#7  ? at ??:?
#8  ? at ??:?
#9  ? at ??:?
#10  __libc_start_main in "/lib64/libc.so.6"
#11  ? at ??:?
