/*---------------------------------------------------------------------------*\
  =========                 |
  \\      /  F ield         | OpenFOAM: The Open Source CFD Toolbox
   \\    /   O peration     | Website:  https://openfoam.org
    \\  /    A nd           | Version:  7
     \\/     M anipulation  |
\*---------------------------------------------------------------------------*/
Build  : 7
Exec   : icoFoam
Date   : Apr 05 2024
Time   : 12:59:10
Host   : "c202-016.frontera.tacc.utexas.edu"
PID    : 208161
I/O    : uncollated
Case   : /work2/09043/kjm24/frontera/COE347/FinalProj
nProcs : 1
sigFpe : Enabling floating point exception trapping (FOAM_SIGFPE).
fileModificationChecking : Monitoring run-time modified files using timeStampMaster (fileModificationSkew 10)
allowSystemOperations : Allowing user-supplied system call operations

// * * * * * * * * * * * * * * * * * * * * * * * * * * * * * * * * * * * * * //
Create time

Create mesh for time = 0

Reading transportProperties

Reading field p

Reading field U

Reading/calculating face flux field phi


Starting time loop

--> FOAM Warning : 
    From function void Foam::probes::findElements(const Foam::fvMesh &)
    in file probes/probes.C at line 119
    Did not find location (5.5 -0.5 0) in any cell. Skipping location.
--> FOAM Warning : 
    From function void Foam::probes::findElements(const Foam::fvMesh &)
    in file probes/probes.C at line 119
    Did not find location (5.5 0.5 0) in any cell. Skipping location.
--> FOAM Warning : 
    From function void Foam::particle::locate(const Foam::Vector<double> &, int, bool, Foam::string)
    in file particle/particle.C at line 495
    Particle initialised with a location outside of the mesh.
--> FOAM Warning : 
    From function void Foam::sampledSets::combineSampledSets(Foam::PtrList<Foam::coordSet> &, Foam::List<Foam::List<int>> &)
    in file sampledSet/sampledSets/sampledSets.C at line 115
    Sample set line27 has zero points.
--> FOAM Warning : 
    From function void Foam::sampledSets::combineSampledSets(Foam::PtrList<Foam::coordSet> &, Foam::List<Foam::List<int>> &)
    in file sampledSet/sampledSets/sampledSets.C at line 115
    Sample set line28 has zero points.
--> FOAM Warning : 
    From function void Foam::sampledSets::combineSampledSets(Foam::PtrList<Foam::coordSet> &, Foam::List<Foam::List<int>> &)
    in file sampledSet/sampledSets/sampledSets.C at line 115
    Sample set line32 has zero points.
--> FOAM Warning : 
    From function void Foam::sampledSets::combineSampledSets(Foam::PtrList<Foam::coordSet> &, Foam::List<Foam::List<int>> &)
    in file sampledSet/sampledSets/sampledSets.C at line 115
    Sample set line33 has zero points.
--> FOAM Warning : 
    From function void Foam::sampledSets::combineSampledSets(Foam::PtrList<Foam::coordSet> &, Foam::List<Foam::List<int>> &)
    in file sampledSet/sampledSets/sampledSets.C at line 115
    Sample set line34 has zero points.
--> FOAM Warning : 
    From function void Foam::sampledSets::combineSampledSets(Foam::PtrList<Foam::coordSet> &, Foam::List<Foam::List<int>> &)
    in file sampledSet/sampledSets/sampledSets.C at line 115
    Sample set line35 has zero points.
--> FOAM Warning : 
    From function void Foam::sampledSets::combineSampledSets(Foam::PtrList<Foam::coordSet> &, Foam::List<Foam::List<int>> &)
    in file sampledSet/sampledSets/sampledSets.C at line 115
    Sample set line36 has zero points.
--> FOAM Warning : 
    From function void Foam::sampledSets::combineSampledSets(Foam::PtrList<Foam::coordSet> &, Foam::List<Foam::List<int>> &)
    in file sampledSet/sampledSets/sampledSets.C at line 115
    Sample set line37 has zero points.
--> FOAM Warning : 
    From function void Foam::sampledSets::combineSampledSets(Foam::PtrList<Foam::coordSet> &, Foam::List<Foam::List<int>> &)
    in file sampledSet/sampledSets/sampledSets.C at line 115
    Sample set line38 has zero points.
--> FOAM Warning : 
    From function void Foam::sampledSets::combineSampledSets(Foam::PtrList<Foam::coordSet> &, Foam::List<Foam::List<int>> &)
    in file sampledSet/sampledSets/sampledSets.C at line 115
    Sample set line39 has zero points.
--> FOAM Warning : 
    From function void Foam::sampledSets::combineSampledSets(Foam::PtrList<Foam::coordSet> &, Foam::List<Foam::List<int>> &)
    in file sampledSet/sampledSets/sampledSets.C at line 115
    Sample set line40 has zero points.
--> FOAM Warning : 
    From function void Foam::sampledSets::combineSampledSets(Foam::PtrList<Foam::coordSet> &, Foam::List<Foam::List<int>> &)
    in file sampledSet/sampledSets/sampledSets.C at line 115
    Sample set line41 has zero points.
--> FOAM Warning : 
    From function void Foam::sampledSets::combineSampledSets(Foam::PtrList<Foam::coordSet> &, Foam::List<Foam::List<int>> &)
    in file sampledSet/sampledSets/sampledSets.C at line 115
    Sample set line42 has zero points.
--> FOAM Warning : 
    From function void Foam::sampledSets::combineSampledSets(Foam::PtrList<Foam::coordSet> &, Foam::List<Foam::List<int>> &)
    in file sampledSet/sampledSets/sampledSets.C at line 115
    Sample set line43 has zero points.
--> FOAM Warning : 
    From function void Foam::sampledSets::combineSampledSets(Foam::PtrList<Foam::coordSet> &, Foam::List<Foam::List<int>> &)
    in file sampledSet/sampledSets/sampledSets.C at line 115
    Sample set line44 has zero points.
--> FOAM Warning : 
    From function void Foam::sampledSets::combineSampledSets(Foam::PtrList<Foam::coordSet> &, Foam::List<Foam::List<int>> &)
    in file sampledSet/sampledSets/sampledSets.C at line 115
    Sample set line45 has zero points.
--> FOAM Warning : 
    From function void Foam::sampledSets::combineSampledSets(Foam::PtrList<Foam::coordSet> &, Foam::List<Foam::List<int>> &)
    in file sampledSet/sampledSets/sampledSets.C at line 115
    Sample set line46 has zero points.
--> FOAM Warning : 
    From function void Foam::sampledSets::combineSampledSets(Foam::PtrList<Foam::coordSet> &, Foam::List<Foam::List<int>> &)
    in file sampledSet/sampledSets/sampledSets.C at line 115
    Sample set line47 has zero points.
--> FOAM Warning : 
    From function void Foam::sampledSets::combineSampledSets(Foam::PtrList<Foam::coordSet> &, Foam::List<Foam::List<int>> &)
    in file sampledSet/sampledSets/sampledSets.C at line 115
    Sample set line48 has zero points.
--> FOAM Warning : 
    From function void Foam::sampledSets::combineSampledSets(Foam::PtrList<Foam::coordSet> &, Foam::List<Foam::List<int>> &)
    in file sampledSet/sampledSets/sampledSets.C at line 115
    Sample set line49 has zero points.
--> FOAM Warning : 
    From function void Foam::sampledSets::combineSampledSets(Foam::PtrList<Foam::coordSet> &, Foam::List<Foam::List<int>> &)
    in file sampledSet/sampledSets/sampledSets.C at line 115
    Sample set line50 has zero points.
Reading set description:
    line1
    line2
    line3
    line4
    line5
    line6
    line7
    line8
    line9
    line10
    line11
    line12
    line13
    line14
    line15
    line16
    line17
    line18
    line19
    line20
    line21
    line22
    line23
    line24
    line25
    line26
    line27
    line28
    line29
    line30
    line31
    line32
    line33
    line34
    line35
    line36
    line37
    line38
    line39
    line40
    line41
    line42
    line43
    line44
    line45
    line46
    line47
    line48
    line49
    line50

forces forces:
--> FOAM Warning : 
    From function const Foam::HashTable<Foam::List<int>, Foam::word, Foam::string::hash> &Foam::polyBoundaryMesh::groupPatchIDs() const
    in file meshes/polyMesh/polyBoundaryMesh/polyBoundaryMesh.C at line 473
    Removing patchGroup 'wall' which clashes with patch 2 of the same name.
--> FOAM Warning : 
    From function Foam::HashSet<int, Foam::Hash<int>> Foam::polyBoundaryMesh::patchSet(const Foam::UList<Foam::wordRe> &, bool, bool) const
    in file meshes/polyMesh/polyBoundaryMesh/polyBoundaryMesh.C at line 804
    Cannot find any patch or group names matching cylinder
    Not including porosity effects
forces forceCoeffs:
--> FOAM Warning : 
    From function Foam::HashSet<int, Foam::Hash<int>> Foam::polyBoundaryMesh::patchSet(const Foam::UList<Foam::wordRe> &, bool, bool) const
    in file meshes/polyMesh/polyBoundaryMesh/polyBoundaryMesh.C at line 804
    Cannot find any patch or group names matching cylinder
    Not including porosity effects
forceCoeffs forceCoeffs:
--> FOAM Warning : 
    From function Foam::HashSet<int, Foam::Hash<int>> Foam::polyBoundaryMesh::patchSet(const Foam::UList<Foam::wordRe> &, bool, bool) const
    in file meshes/polyMesh/polyBoundaryMesh/polyBoundaryMesh.C at line 804
    Cannot find any patch or group names matching cylinder
    Not including porosity effects
Time = 0.0025

Courant Number mean: 0.0507407 max: 0.125
smoothSolver:  Solving for Ux, Initial residual = 1, Final residual = 1.08763e-09, No Iterations 3
smoothSolver:  Solving for Uy, Initial residual = 3.09423e-13, Final residual = 3.09423e-13, No Iterations 0
smoothSolver:  Solving for Uz, Initial residual = 0.324309, Final residual = 9.9545e-10, No Iterations 3
DICPCG:  Solving for p, Initial residual = 1, Final residual = 6.22921e-08, No Iterations 242
time step continuity errors : sum local = 2.3659e-11, global = 3.71236e-14, cumulative = 3.71236e-14
DICPCG:  Solving for p, Initial residual = 0.00160058, Final residual = 9.2719e-08, No Iterations 224
time step continuity errors : sum local = 1.98909e-09, global = -1.0326e-11, cumulative = -1.02889e-11
ExecutionTime = 0.72 s  ClockTime = 3 s

forces forces write:
    sum of forces:
        pressure : (0 0 0)
        viscous  : (0 0 0)
        porous   : (0 0 0)
    sum of moments:
        pressure : (0 0 0)
        viscous  : (0 0 0)
        porous   : (0 0 0)

forceCoeffs forceCoeffs write:
    Cm    = 0
    Cd    = 0
    Cl    = 0
    Cl(f) = 0
    Cl(r) = 0

Time = 0.005

Courant Number mean: 0.0719836 max: 1.85136
smoothSolver:  Solving for Ux, Initial residual = 0.120512, Final residual = 9.74718e-08, No Iterations 14
smoothSolver:  Solving for Uy, Initial residual = 0.332899, Final residual = 7.50228e-08, No Iterations 17
smoothSolver:  Solving for Uz, Initial residual = 0.280883, Final residual = 7.7229e-08, No Iterations 13
DICPCG:  Solving for p, Initial residual = 0.0287592, Final residual = 8.83142e-08, No Iterations 232
time step continuity errors : sum local = 1.86457e-09, global = 3.11836e-13, cumulative = -9.97704e-12
DICPCG:  Solving for p, Initial residual = 0.222151, Final residual = 7.15989e-08, No Iterations 235
time step continuity errors : sum local = 6.86806e-11, global = -1.25286e-13, cumulative = -1.01023e-11
ExecutionTime = 0.95 s  ClockTime = 3 s

forces forces write:
    sum of forces:
        pressure : (0 0 0)
        viscous  : (0 0 0)
        porous   : (0 0 0)
    sum of moments:
        pressure : (0 0 0)
        viscous  : (0 0 0)
        porous   : (0 0 0)

forceCoeffs forceCoeffs write:
    Cm    = 0
    Cd    = 0
    Cl    = 0
    Cl(f) = 0
    Cl(r) = 0

Time = 0.0075

Courant Number mean: 0.0719886 max: 1.9504
smoothSolver:  Solving for Ux, Initial residual = 0.00596523, Final residual = 9.85175e-08, No Iterations 14
smoothSolver:  Solving for Uy, Initial residual = 0.0163933, Final residual = 3.5702e-08, No Iterations 17
smoothSolver:  Solving for Uz, Initial residual = 0.0191106, Final residual = 5.16093e-08, No Iterations 15
DICPCG:  Solving for p, Initial residual = 0.219204, Final residual = 7.49767e-08, No Iterations 233
time step continuity errors : sum local = 4.2045e-11, global = -1.01307e-13, cumulative = -1.02036e-11
DICPCG:  Solving for p, Initial residual = 0.0491605, Final residual = 8.09507e-08, No Iterations 226
time step continuity errors : sum local = 4.02949e-11, global = 7.09545e-14, cumulative = -1.01327e-11
ExecutionTime = 1.17 s  ClockTime = 4 s

forces forces write:
    sum of forces:
        pressure : (0 0 0)
        viscous  : (0 0 0)
        porous   : (0 0 0)
    sum of moments:
        pressure : (0 0 0)
        viscous  : (0 0 0)
        porous   : (0 0 0)

forceCoeffs forceCoeffs write:
    Cm    = 0
    Cd    = 0
    Cl    = 0
    Cl(f) = 0
    Cl(r) = 0

Time = 0.01

Courant Number mean: 0.0719954 max: 2.00292
smoothSolver:  Solving for Ux, Initial residual = 0.00420501, Final residual = 7.37946e-08, No Iterations 15
smoothSolver:  Solving for Uy, Initial residual = 0.0131907, Final residual = 9.24225e-08, No Iterations 17
smoothSolver:  Solving for Uz, Initial residual = 0.018664, Final residual = 6.3508e-08, No Iterations 17
DICPCG:  Solving for p, Initial residual = 0.1107, Final residual = 8.16149e-08, No Iterations 231
time step continuity errors : sum local = 4.04464e-11, global = -1.63094e-13, cumulative = -1.02958e-11
DICPCG:  Solving for p, Initial residual = 0.0461951, Final residual = 8.52145e-08, No Iterations 226
time step continuity errors : sum local = 4.45133e-11, global = 2.02046e-13, cumulative = -1.00937e-11
ExecutionTime = 1.39 s  ClockTime = 4 s

forces forces write:
    sum of forces:
        pressure : (0 0 0)
        viscous  : (0 0 0)
        porous   : (0 0 0)
    sum of moments:
        pressure : (0 0 0)
        viscous  : (0 0 0)
        porous   : (0 0 0)

forceCoeffs forceCoeffs write:
    Cm    = 0
    Cd    = 0
    Cl    = 0
    Cl(f) = 0
    Cl(r) = 0

Time = 0.0125

Courant Number mean: 0.0720101 max: 2.05241
smoothSolver:  Solving for Ux, Initial residual = 0.00392121, Final residual = 6.23322e-08, No Iterations 16
smoothSolver:  Solving for Uy, Initial residual = 0.0132889, Final residual = 8.70356e-08, No Iterations 18
smoothSolver:  Solving for Uz, Initial residual = 0.0179945, Final residual = 6.80518e-08, No Iterations 19
DICPCG:  Solving for p, Initial residual = 0.0736037, Final residual = 9.01998e-08, No Iterations 230
time step continuity errors : sum local = 4.76274e-11, global = -1.95454e-13, cumulative = -1.02892e-11
DICPCG:  Solving for p, Initial residual = 0.0412199, Final residual = 6.89173e-08, No Iterations 226
time step continuity errors : sum local = 3.80599e-11, global = 7.84865e-14, cumulative = -1.02107e-11
ExecutionTime = 1.62 s  ClockTime = 4 s

forces forces write:
    sum of forces:
        pressure : (0 0 0)
        viscous  : (0 0 0)
        porous   : (0 0 0)
    sum of moments:
        pressure : (0 0 0)
        viscous  : (0 0 0)
        porous   : (0 0 0)

forceCoeffs forceCoeffs write:
    Cm    = 0
    Cd    = 0
    Cl    = 0
    Cl(f) = 0
    Cl(r) = 0

Time = 0.015

Courant Number mean: 0.0720369 max: 2.09974
smoothSolver:  Solving for Ux, Initial residual = 0.00377911, Final residual = 4.00876e-08, No Iterations 17
smoothSolver:  Solving for Uy, Initial residual = 0.0133704, Final residual = 3.89032e-08, No Iterations 20
smoothSolver:  Solving for Uz, Initial residual = 0.0174424, Final residual = 6.99012e-08, No Iterations 19
DICPCG:  Solving for p, Initial residual = 0.0664166, Final residual = 7.10916e-08, No Iterations 230
time step continuity errors : sum local = 3.96698e-11, global = -1.31744e-13, cumulative = -1.03424e-11
DICPCG:  Solving for p, Initial residual = 0.0371489, Final residual = 8.89742e-08, No Iterations 225
time step continuity errors : sum local = 5.10717e-11, global = 8.01847e-14, cumulative = -1.02622e-11
ExecutionTime = 1.85 s  ClockTime = 4 s

forces forces write:
    sum of forces:
        pressure : (0 0 0)
        viscous  : (0 0 0)
        porous   : (0 0 0)
    sum of moments:
        pressure : (0 0 0)
        viscous  : (0 0 0)
        porous   : (0 0 0)

forceCoeffs forceCoeffs write:
    Cm    = 0
    Cd    = 0
    Cl    = 0
    Cl(f) = 0
    Cl(r) = 0

Time = 0.0175

Courant Number mean: 0.0720793 max: 2.14194
smoothSolver:  Solving for Ux, Initial residual = 0.00368361, Final residual = 9.78781e-08, No Iterations 17
smoothSolver:  Solving for Uy, Initial residual = 0.0135685, Final residual = 4.50015e-08, No Iterations 21
smoothSolver:  Solving for Uz, Initial residual = 0.0169314, Final residual = 8.32741e-08, No Iterations 24
DICPCG:  Solving for p, Initial residual = 0.0596312, Final residual = 8.52786e-08, No Iterations 229
time step continuity errors : sum local = 4.93145e-11, global = -1.28772e-13, cumulative = -1.0391e-11
DICPCG:  Solving for p, Initial residual = 0.0347256, Final residual = 7.3511e-08, No Iterations 225
time step continuity errors : sum local = 4.34053e-11, global = 8.38542e-14, cumulative = -1.03072e-11
ExecutionTime = 2.08 s  ClockTime = 5 s

forces forces write:
    sum of forces:
        pressure : (0 0 0)
        viscous  : (0 0 0)
        porous   : (0 0 0)
    sum of moments:
        pressure : (0 0 0)
        viscous  : (0 0 0)
        porous   : (0 0 0)

forceCoeffs forceCoeffs write:
    Cm    = 0
    Cd    = 0
    Cl    = 0
    Cl(f) = 0
    Cl(r) = 0

Time = 0.02

Courant Number mean: 0.0721386 max: 2.17649
smoothSolver:  Solving for Ux, Initial residual = 0.00360163, Final residual = 4.89685e-08, No Iterations 19
smoothSolver:  Solving for Uy, Initial residual = 0.0137603, Final residual = 7.54159e-08, No Iterations 22
smoothSolver:  Solving for Uz, Initial residual = 0.0165439, Final residual = 5.512e-08, No Iterations 22
DICPCG:  Solving for p, Initial residual = 0.0567367, Final residual = 7.05932e-08, No Iterations 229
time step continuity errors : sum local = 4.21433e-11, global = -9.30493e-14, cumulative = -1.04002e-11
DICPCG:  Solving for p, Initial residual = 0.0359172, Final residual = 9.05231e-08, No Iterations 224
time step continuity errors : sum local = 5.48935e-11, global = 2.23087e-13, cumulative = -1.01771e-11
ExecutionTime = 2.31 s  ClockTime = 5 s

forces forces write:
    sum of forces:
        pressure : (0 0 0)
        viscous  : (0 0 0)
        porous   : (0 0 0)
    sum of moments:
        pressure : (0 0 0)
        viscous  : (0 0 0)
        porous   : (0 0 0)

forceCoeffs forceCoeffs write:
    Cm    = 0
    Cd    = 0
    Cl    = 0
    Cl(f) = 0
    Cl(r) = 0

Time = 0.0225

Courant Number mean: 0.0722114 max: 2.20323
smoothSolver:  Solving for Ux, Initial residual = 0.00354849, Final residual = 6.59569e-08, No Iterations 20
smoothSolver:  Solving for Uy, Initial residual = 0.0139589, Final residual = 6.78081e-08, No Iterations 26
smoothSolver:  Solving for Uz, Initial residual = 0.016156, Final residual = 8.22044e-08, No Iterations 30
DICPCG:  Solving for p, Initial residual = 0.0591982, Final residual = 9.07562e-08, No Iterations 228
time step continuity errors : sum local = 5.53229e-11, global = -8.84027e-14, cumulative = -1.02655e-11
DICPCG:  Solving for p, Initial residual = 0.0379443, Final residual = 9.28899e-08, No Iterations 223
time step continuity errors : sum local = 5.71606e-11, global = 1.73962e-13, cumulative = -1.00916e-11
ExecutionTime = 2.55 s  ClockTime = 5 s

forces forces write:
    sum of forces:
        pressure : (0 0 0)
        viscous  : (0 0 0)
        porous   : (0 0 0)
    sum of moments:
        pressure : (0 0 0)
        viscous  : (0 0 0)
        porous   : (0 0 0)

forceCoeffs forceCoeffs write:
    Cm    = 0
    Cd    = 0
    Cl    = 0
    Cl(f) = 0
    Cl(r) = 0

Time = 0.025

Courant Number mean: 0.0722909 max: 2.2232
smoothSolver:  Solving for Ux, Initial residual = 0.00351702, Final residual = 7.18942e-08, No Iterations 22
smoothSolver:  Solving for Uy, Initial residual = 0.0141804, Final residual = 7.40925e-08, No Iterations 27
smoothSolver:  Solving for Uz, Initial residual = 0.0158404, Final residual = 6.70302e-08, No Iterations 34
DICPCG:  Solving for p, Initial residual = 0.0587949, Final residual = 9.43011e-08, No Iterations 227
time step continuity errors : sum local = 5.82705e-11, global = -5.11123e-13, cumulative = -1.06027e-11
DICPCG:  Solving for p, Initial residual = 0.0363021, Final residual = 9.04523e-08, No Iterations 223
time step continuity errors : sum local = 5.63884e-11, global = -3.98833e-14, cumulative = -1.06426e-11
ExecutionTime = 2.78 s  ClockTime = 5 s

forces forces write:
    sum of forces:
        pressure : (0 0 0)
        viscous  : (0 0 0)
        porous   : (0 0 0)
    sum of moments:
        pressure : (0 0 0)
        viscous  : (0 0 0)
        porous   : (0 0 0)

forceCoeffs forceCoeffs write:
    Cm    = 0
    Cd    = 0
    Cl    = 0
    Cl(f) = 0
    Cl(r) = 0

Time = 0.0275

Courant Number mean: 0.0723733 max: 2.23757
smoothSolver:  Solving for Ux, Initial residual = 0.00348318, Final residual = 9.57717e-08, No Iterations 25
smoothSolver:  Solving for Uy, Initial residual = 0.0143058, Final residual = 8.29724e-08, No Iterations 28
smoothSolver:  Solving for Uz, Initial residual = 0.0155458, Final residual = 8.07728e-08, No Iterations 36
DICPCG:  Solving for p, Initial residual = 0.060314, Final residual = 7.57199e-08, No Iterations 227
time step continuity errors : sum local = 4.74507e-11, global = 7.41819e-14, cumulative = -1.05684e-11
DICPCG:  Solving for p, Initial residual = 0.0416631, Final residual = 9.24595e-08, No Iterations 222
time step continuity errors : sum local = 5.80918e-11, global = 1.88222e-13, cumulative = -1.03802e-11
ExecutionTime = 3.03 s  ClockTime = 6 s

forces forces write:
    sum of forces:
        pressure : (0 0 0)
        viscous  : (0 0 0)
        porous   : (0 0 0)
    sum of moments:
        pressure : (0 0 0)
        viscous  : (0 0 0)
        porous   : (0 0 0)

forceCoeffs forceCoeffs write:
    Cm    = 0
    Cd    = 0
    Cl    = 0
    Cl(f) = 0
    Cl(r) = 0

Time = 0.03

Courant Number mean: 0.0724609 max: 2.24743
smoothSolver:  Solving for Ux, Initial residual = 0.00345038, Final residual = 7.77131e-08, No Iterations 28
smoothSolver:  Solving for Uy, Initial residual = 0.0145148, Final residual = 7.84637e-08, No Iterations 29
smoothSolver:  Solving for Uz, Initial residual = 0.0152437, Final residual = 9.00782e-08, No Iterations 38
DICPCG:  Solving for p, Initial residual = 0.0631363, Final residual = 9.54442e-08, No Iterations 227
time step continuity errors : sum local = 6.0055e-11, global = 9.65699e-14, cumulative = -1.02836e-11
DICPCG:  Solving for p, Initial residual = 0.0430866, Final residual = 8.30757e-08, No Iterations 222
time step continuity errors : sum local = 5.25976e-11, global = 1.51908e-13, cumulative = -1.01317e-11
ExecutionTime = 3.27 s  ClockTime = 6 s

forces forces write:
    sum of forces:
        pressure : (0 0 0)
        viscous  : (0 0 0)
        porous   : (0 0 0)
    sum of moments:
        pressure : (0 0 0)
        viscous  : (0 0 0)
        porous   : (0 0 0)

forceCoeffs forceCoeffs write:
    Cm    = 0
    Cd    = 0
    Cl    = 0
    Cl(f) = 0
    Cl(r) = 0

Time = 0.0325

Courant Number mean: 0.0725529 max: 2.25384
smoothSolver:  Solving for Ux, Initial residual = 0.0034156, Final residual = 7.88377e-08, No Iterations 31
smoothSolver:  Solving for Uy, Initial residual = 0.0145415, Final residual = 9.33662e-08, No Iterations 34
smoothSolver:  Solving for Uz, Initial residual = 0.0150258, Final residual = 7.3618e-08, No Iterations 43
DICPCG:  Solving for p, Initial residual = 0.0630574, Final residual = 9.55197e-08, No Iterations 226
time step continuity errors : sum local = 6.05688e-11, global = -1.76287e-13, cumulative = -1.0308e-11
DICPCG:  Solving for p, Initial residual = 0.0419682, Final residual = 7.94778e-08, No Iterations 223
time step continuity errors : sum local = 5.05373e-11, global = -4.10693e-14, cumulative = -1.03491e-11
ExecutionTime = 3.52 s  ClockTime = 6 s

forces forces write:
    sum of forces:
        pressure : (0 0 0)
        viscous  : (0 0 0)
        porous   : (0 0 0)
    sum of moments:
        pressure : (0 0 0)
        viscous  : (0 0 0)
        porous   : (0 0 0)

forceCoeffs forceCoeffs write:
    Cm    = 0
    Cd    = 0
    Cl    = 0
    Cl(f) = 0
    Cl(r) = 0

Time = 0.035

Courant Number mean: 0.0726399 max: 2.25778
smoothSolver:  Solving for Ux, Initial residual = 0.00338762, Final residual = 6.50604e-08, No Iterations 35
smoothSolver:  Solving for Uy, Initial residual = 0.0147137, Final residual = 9.36009e-08, No Iterations 39
smoothSolver:  Solving for Uz, Initial residual = 0.0147722, Final residual = 9.13628e-08, No Iterations 46
DICPCG:  Solving for p, Initial residual = 0.0704617, Final residual = 6.27738e-08, No Iterations 228
time step continuity errors : sum local = 4.02006e-11, global = -2.04926e-14, cumulative = -1.03695e-11
DICPCG:  Solving for p, Initial residual = 0.0496985, Final residual = 7.78116e-08, No Iterations 223
time step continuity errors : sum local = 5.03715e-11, global = -1.54723e-13, cumulative = -1.05243e-11
ExecutionTime = 3.79 s  ClockTime = 6 s

forces forces write:
    sum of forces:
        pressure : (0 0 0)
        viscous  : (0 0 0)
        porous   : (0 0 0)
    sum of moments:
        pressure : (0 0 0)
        viscous  : (0 0 0)
        porous   : (0 0 0)

forceCoeffs forceCoeffs write:
    Cm    = 0
    Cd    = 0
    Cl    = 0
    Cl(f) = 0
    Cl(r) = 0

Time = 0.0375

Courant Number mean: 0.0727436 max: 2.25979
smoothSolver:  Solving for Ux, Initial residual = 0.00337382, Final residual = 8.67211e-08, No Iterations 38
smoothSolver:  Solving for Uy, Initial residual = 0.0148693, Final residual = 9.96119e-08, No Iterations 42
smoothSolver:  Solving for Uz, Initial residual = 0.0145416, Final residual = 9.97177e-08, No Iterations 48
DICPCG:  Solving for p, Initial residual = 0.0688752, Final residual = 6.61954e-08, No Iterations 228
time step continuity errors : sum local = 4.31484e-11, global = 2.49614e-14, cumulative = -1.04993e-11
DICPCG:  Solving for p, Initial residual = 0.0476866, Final residual = 7.96752e-08, No Iterations 223
time step continuity errors : sum local = 5.1927e-11, global = -2.12663e-13, cumulative = -1.0712e-11
ExecutionTime = 4.06 s  ClockTime = 7 s

forces forces write:
    sum of forces:
        pressure : (0 0 0)
        viscous  : (0 0 0)
        porous   : (0 0 0)
    sum of moments:
        pressure : (0 0 0)
        viscous  : (0 0 0)
        porous   : (0 0 0)

forceCoeffs forceCoeffs write:
    Cm    = 0
    Cd    = 0
    Cl    = 0
    Cl(f) = 0
    Cl(r) = 0

Time = 0.04

Courant Number mean: 0.0729149 max: 2.25997
smoothSolver:  Solving for Ux, Initial residual = 0.00336205, Final residual = 9.48753e-08, No Iterations 40
smoothSolver:  Solving for Uy, Initial residual = 0.014917, Final residual = 6.305e-08, No Iterations 50
smoothSolver:  Solving for Uz, Initial residual = 0.0142974, Final residual = 6.60814e-08, No Iterations 58
DICPCG:  Solving for p, Initial residual = 0.0760462, Final residual = 6.78542e-08, No Iterations 228
time step continuity errors : sum local = 4.45381e-11, global = 1.61817e-14, cumulative = -1.06958e-11
DICPCG:  Solving for p, Initial residual = 0.0515277, Final residual = 8.24555e-08, No Iterations 222
time step continuity errors : sum local = 5.45773e-11, global = 2.01761e-13, cumulative = -1.0494e-11
ExecutionTime = 4.34 s  ClockTime = 7 s

forces forces write:
    sum of forces:
        pressure : (0 0 0)
        viscous  : (0 0 0)
        porous   : (0 0 0)
    sum of moments:
        pressure : (0 0 0)
        viscous  : (0 0 0)
        porous   : (0 0 0)

forceCoeffs forceCoeffs write:
    Cm    = 0
    Cd    = 0
    Cl    = 0
    Cl(f) = 0
    Cl(r) = 0

Time = 0.0425

Courant Number mean: 0.0731269 max: 2.25817
smoothSolver:  Solving for Ux, Initial residual = 0.00337098, Final residual = 6.59783e-08, No Iterations 41
smoothSolver:  Solving for Uy, Initial residual = 0.0150367, Final residual = 7.95764e-08, No Iterations 52
smoothSolver:  Solving for Uz, Initial residual = 0.0141289, Final residual = 8.32218e-08, No Iterations 60
DICPCG:  Solving for p, Initial residual = 0.0779528, Final residual = 6.70214e-08, No Iterations 228
time step continuity errors : sum local = 4.45916e-11, global = -1.23529e-14, cumulative = -1.05064e-11
DICPCG:  Solving for p, Initial residual = 0.0561151, Final residual = 9.01995e-08, No Iterations 222
time step continuity errors : sum local = 6.04216e-11, global = -4.33972e-15, cumulative = -1.05107e-11
ExecutionTime = 4.61 s  ClockTime = 7 s

forces forces write:
    sum of forces:
        pressure : (0 0 0)
        viscous  : (0 0 0)
        porous   : (0 0 0)
    sum of moments:
        pressure : (0 0 0)
        viscous  : (0 0 0)
        porous   : (0 0 0)

forceCoeffs forceCoeffs write:
    Cm    = 0
    Cd    = 0
    Cl    = 0
    Cl(f) = 0
    Cl(r) = 0

Time = 0.045

Courant Number mean: 0.0733585 max: 2.25459
smoothSolver:  Solving for Ux, Initial residual = 0.00338238, Final residual = 9.69589e-08, No Iterations 48
smoothSolver:  Solving for Uy, Initial residual = 0.0150098, Final residual = 7.67223e-08, No Iterations 62
smoothSolver:  Solving for Uz, Initial residual = 0.01392, Final residual = 9.52581e-08, No Iterations 71
DICPCG:  Solving for p, Initial residual = 0.0850071, Final residual = 7.32801e-08, No Iterations 228
time step continuity errors : sum local = 4.93385e-11, global = 9.31042e-14, cumulative = -1.04176e-11
DICPCG:  Solving for p, Initial residual = 0.056325, Final residual = 7.59804e-08, No Iterations 222
time step continuity errors : sum local = 5.15737e-11, global = 1.2056e-13, cumulative = -1.02971e-11
ExecutionTime = 4.91 s  ClockTime = 7 s

forces forces write:
    sum of forces:
        pressure : (0 0 0)
        viscous  : (0 0 0)
        porous   : (0 0 0)
    sum of moments:
        pressure : (0 0 0)
        viscous  : (0 0 0)
        porous   : (0 0 0)

forceCoeffs forceCoeffs write:
    Cm    = 0
    Cd    = 0
    Cl    = 0
    Cl(f) = 0
    Cl(r) = 0

Time = 0.0475

Courant Number mean: 0.0736012 max: 2.24982
smoothSolver:  Solving for Ux, Initial residual = 0.00339029, Final residual = 9.52858e-08, No Iterations 52
smoothSolver:  Solving for Uy, Initial residual = 0.01498, Final residual = 9.79787e-08, No Iterations 66
smoothSolver:  Solving for Uz, Initial residual = 0.0137454, Final residual = 7.53998e-08, No Iterations 80
DICPCG:  Solving for p, Initial residual = 0.0857964, Final residual = 7.22662e-08, No Iterations 228
time step continuity errors : sum local = 4.9416e-11, global = 2.93274e-14, cumulative = -1.02677e-11
DICPCG:  Solving for p, Initial residual = 0.0578356, Final residual = 8.05985e-08, No Iterations 222
time step continuity errors : sum local = 5.57644e-11, global = -4.16076e-14, cumulative = -1.03093e-11
ExecutionTime = 5.21 s  ClockTime = 8 s

forces forces write:
    sum of forces:
        pressure : (0 0 0)
        viscous  : (0 0 0)
        porous   : (0 0 0)
    sum of moments:
        pressure : (0 0 0)
        viscous  : (0 0 0)
        porous   : (0 0 0)

forceCoeffs forceCoeffs write:
    Cm    = 0
    Cd    = 0
    Cl    = 0
    Cl(f) = 0
    Cl(r) = 0

Time = 0.05

Courant Number mean: 0.0738607 max: 2.2444
smoothSolver:  Solving for Ux, Initial residual = 0.00341437, Final residual = 8.27926e-08, No Iterations 54
smoothSolver:  Solving for Uy, Initial residual = 0.0149841, Final residual = 9.7217e-08, No Iterations 70
smoothSolver:  Solving for Uz, Initial residual = 0.0135261, Final residual = 8.55425e-08, No Iterations 83
DICPCG:  Solving for p, Initial residual = 0.09416, Final residual = 6.93006e-08, No Iterations 228
time step continuity errors : sum local = 4.79862e-11, global = 7.23828e-14, cumulative = -1.0237e-11
DICPCG:  Solving for p, Initial residual = 0.0640367, Final residual = 7.37671e-08, No Iterations 222
time step continuity errors : sum local = 5.147e-11, global = 1.80623e-13, cumulative = -1.00563e-11
ExecutionTime = 5.52 s  ClockTime = 8 s

forces forces write:
    sum of forces:
        pressure : (0 0 0)
        viscous  : (0 0 0)
        porous   : (0 0 0)
    sum of moments:
        pressure : (0 0 0)
        viscous  : (0 0 0)
        porous   : (0 0 0)

forceCoeffs forceCoeffs write:
    Cm    = 0
    Cd    = 0
    Cl    = 0
    Cl(f) = 0
    Cl(r) = 0

Time = 0.0525

Courant Number mean: 0.0741192 max: 2.23885
smoothSolver:  Solving for Ux, Initial residual = 0.00342627, Final residual = 9.64039e-08, No Iterations 60
smoothSolver:  Solving for Uy, Initial residual = 0.0149542, Final residual = 8.86818e-08, No Iterations 78
smoothSolver:  Solving for Uz, Initial residual = 0.0133795, Final residual = 8.59656e-08, No Iterations 90
DICPCG:  Solving for p, Initial residual = 0.0913795, Final residual = 6.67059e-08, No Iterations 228
time step continuity errors : sum local = 4.68178e-11, global = 5.90862e-14, cumulative = -9.99724e-12
DICPCG:  Solving for p, Initial residual = 0.0620275, Final residual = 9.90378e-08, No Iterations 221
time step continuity errors : sum local = 6.97727e-11, global = 2.8058e-13, cumulative = -9.71666e-12
ExecutionTime = 5.84 s  ClockTime = 8 s

forces forces write:
    sum of forces:
        pressure : (0 0 0)
        viscous  : (0 0 0)
        porous   : (0 0 0)
    sum of moments:
        pressure : (0 0 0)
        viscous  : (0 0 0)
        porous   : (0 0 0)

forceCoeffs forceCoeffs write:
    Cm    = 0
    Cd    = 0
    Cl    = 0
    Cl(f) = 0
    Cl(r) = 0

Time = 0.055

Courant Number mean: 0.074374 max: 2.23282
smoothSolver:  Solving for Ux, Initial residual = 0.00343985, Final residual = 7.65547e-08, No Iterations 61
smoothSolver:  Solving for Uy, Initial residual = 0.0148972, Final residual = 8.54548e-08, No Iterations 77
smoothSolver:  Solving for Uz, Initial residual = 0.0132305, Final residual = 9.94707e-08, No Iterations 85
DICPCG:  Solving for p, Initial residual = 0.100786, Final residual = 6.41929e-08, No Iterations 228
time step continuity errors : sum local = 4.53767e-11, global = 7.34194e-14, cumulative = -9.64324e-12
DICPCG:  Solving for p, Initial residual = 0.0665091, Final residual = 6.94273e-08, No Iterations 222
time step continuity errors : sum local = 4.99566e-11, global = 1.20742e-13, cumulative = -9.5225e-12
ExecutionTime = 6.16 s  ClockTime = 9 s

forces forces write:
    sum of forces:
        pressure : (0 0 0)
        viscous  : (0 0 0)
        porous   : (0 0 0)
    sum of moments:
        pressure : (0 0 0)
        viscous  : (0 0 0)
        porous   : (0 0 0)

forceCoeffs forceCoeffs write:
    Cm    = 0
    Cd    = 0
    Cl    = 0
    Cl(f) = 0
    Cl(r) = 0

Time = 0.0575

Courant Number mean: 0.0746331 max: 2.22585
smoothSolver:  Solving for Ux, Initial residual = 0.00346271, Final residual = 7.26691e-08, No Iterations 63
smoothSolver:  Solving for Uy, Initial residual = 0.0149325, Final residual = 7.34745e-08, No Iterations 77
smoothSolver:  Solving for Uz, Initial residual = 0.013045, Final residual = 7.12374e-08, No Iterations 94
DICPCG:  Solving for p, Initial residual = 0.100818, Final residual = 9.62155e-08, No Iterations 227
time step continuity errors : sum local = 6.94467e-11, global = 1.62024e-13, cumulative = -9.36048e-12
DICPCG:  Solving for p, Initial residual = 0.0688376, Final residual = 7.58333e-08, No Iterations 222
time step continuity errors : sum local = 5.50072e-11, global = -1.81942e-13, cumulative = -9.54242e-12
ExecutionTime = 6.49 s  ClockTime = 9 s

forces forces write:
    sum of forces:
        pressure : (0 0 0)
        viscous  : (0 0 0)
        porous   : (0 0 0)
    sum of moments:
        pressure : (0 0 0)
        viscous  : (0 0 0)
        porous   : (0 0 0)

forceCoeffs forceCoeffs write:
    Cm    = 0
    Cd    = 0
    Cl    = 0
    Cl(f) = 0
    Cl(r) = 0

Time = 0.06

Courant Number mean: 0.0748869 max: 2.21781
smoothSolver:  Solving for Ux, Initial residual = 0.00347157, Final residual = 9.25351e-08, No Iterations 66
smoothSolver:  Solving for Uy, Initial residual = 0.0148107, Final residual = 9.92505e-08, No Iterations 87
smoothSolver:  Solving for Uz, Initial residual = 0.0128965, Final residual = 7.85184e-08, No Iterations 101
DICPCG:  Solving for p, Initial residual = 0.105381, Final residual = 8.15515e-08, No Iterations 227
time step continuity errors : sum local = 5.94693e-11, global = 6.07949e-14, cumulative = -9.48162e-12
DICPCG:  Solving for p, Initial residual = 0.0684388, Final residual = 9.43562e-08, No Iterations 221
time step continuity errors : sum local = 6.92977e-11, global = 1.08592e-13, cumulative = -9.37303e-12
ExecutionTime = 6.82 s  ClockTime = 9 s

forces forces write:
    sum of forces:
        pressure : (0 0 0)
        viscous  : (0 0 0)
        porous   : (0 0 0)
    sum of moments:
        pressure : (0 0 0)
        viscous  : (0 0 0)
        porous   : (0 0 0)

forceCoeffs forceCoeffs write:
    Cm    = 0
    Cd    = 0
    Cl    = 0
    Cl(f) = 0
    Cl(r) = 0

Time = 0.0625

Courant Number mean: 0.075132 max: 2.2094
smoothSolver:  Solving for Ux, Initial residual = 0.00347774, Final residual = 9.70867e-08, No Iterations 66
smoothSolver:  Solving for Uy, Initial residual = 0.0147661, Final residual = 8.15474e-08, No Iterations 85
smoothSolver:  Solving for Uz, Initial residual = 0.012698, Final residual = 9.24027e-08, No Iterations 95
DICPCG:  Solving for p, Initial residual = 0.108045, Final residual = 7.25408e-08, No Iterations 226
time step continuity errors : sum local = 5.36234e-11, global = 4.97609e-15, cumulative = -9.36806e-12
DICPCG:  Solving for p, Initial residual = 0.0700134, Final residual = 6.39192e-08, No Iterations 221
time step continuity errors : sum local = 4.75436e-11, global = -1.3766e-13, cumulative = -9.50572e-12
ExecutionTime = 7.15 s  ClockTime = 10 s

forces forces write:
    sum of forces:
        pressure : (0 0 0)
        viscous  : (0 0 0)
        porous   : (0 0 0)
    sum of moments:
        pressure : (0 0 0)
        viscous  : (0 0 0)
        porous   : (0 0 0)

forceCoeffs forceCoeffs write:
    Cm    = 0
    Cd    = 0
    Cl    = 0
    Cl(f) = 0
    Cl(r) = 0

Time = 0.065

Courant Number mean: 0.0753686 max: 2.20153
smoothSolver:  Solving for Ux, Initial residual = 0.00347366, Final residual = 7.78583e-08, No Iterations 59
smoothSolver:  Solving for Uy, Initial residual = 0.0146673, Final residual = 8.43322e-08, No Iterations 80
smoothSolver:  Solving for Uz, Initial residual = 0.0124823, Final residual = 8.07603e-08, No Iterations 85
DICPCG:  Solving for p, Initial residual = 0.112378, Final residual = 7.13083e-08, No Iterations 226
time step continuity errors : sum local = 5.30447e-11, global = 4.88569e-14, cumulative = -9.45686e-12
DICPCG:  Solving for p, Initial residual = 0.0757947, Final residual = 7.25268e-08, No Iterations 221
time step continuity errors : sum local = 5.38842e-11, global = -1.4914e-13, cumulative = -9.606e-12
ExecutionTime = 7.47 s  ClockTime = 10 s

forces forces write:
    sum of forces:
        pressure : (0 0 0)
        viscous  : (0 0 0)
        porous   : (0 0 0)
    sum of moments:
        pressure : (0 0 0)
        viscous  : (0 0 0)
        porous   : (0 0 0)

forceCoeffs forceCoeffs write:
    Cm    = 0
    Cd    = 0
    Cl    = 0
    Cl(f) = 0
    Cl(r) = 0

Time = 0.0675

Courant Number mean: 0.0755904 max: 2.19403
smoothSolver:  Solving for Ux, Initial residual = 0.00347262, Final residual = 8.82558e-08, No Iterations 54
smoothSolver:  Solving for Uy, Initial residual = 0.0146294, Final residual = 9.32001e-08, No Iterations 74
smoothSolver:  Solving for Uz, Initial residual = 0.0123241, Final residual = 9.60545e-08, No Iterations 77
DICPCG:  Solving for p, Initial residual = 0.110819, Final residual = 7.16362e-08, No Iterations 226
time step continuity errors : sum local = 5.36691e-11, global = 2.59598e-14, cumulative = -9.58004e-12
DICPCG:  Solving for p, Initial residual = 0.0708973, Final residual = 7.44986e-08, No Iterations 221
time step continuity errors : sum local = 5.65631e-11, global = -2.52282e-13, cumulative = -9.83232e-12
ExecutionTime = 7.77 s  ClockTime = 10 s

forces forces write:
    sum of forces:
        pressure : (0 0 0)
        viscous  : (0 0 0)
        porous   : (0 0 0)
    sum of moments:
        pressure : (0 0 0)
        viscous  : (0 0 0)
        porous   : (0 0 0)

forceCoeffs forceCoeffs write:
    Cm    = 0
    Cd    = 0
    Cl    = 0
    Cl(f) = 0
    Cl(r) = 0

Time = 0.07

Courant Number mean: 0.0757988 max: 2.19032
smoothSolver:  Solving for Ux, Initial residual = 0.00346096, Final residual = 9.00961e-08, No Iterations 51
smoothSolver:  Solving for Uy, Initial residual = 0.014522, Final residual = 8.46298e-08, No Iterations 68
smoothSolver:  Solving for Uz, Initial residual = 0.012077, Final residual = 8.92598e-08, No Iterations 71
DICPCG:  Solving for p, Initial residual = 0.115948, Final residual = 6.63943e-08, No Iterations 226
time step continuity errors : sum local = 5.03472e-11, global = -1.20301e-13, cumulative = -9.95262e-12
DICPCG:  Solving for p, Initial residual = 0.0751612, Final residual = 9.7804e-08, No Iterations 221
time step continuity errors : sum local = 7.49933e-11, global = 1.06354e-13, cumulative = -9.84627e-12
ExecutionTime = 8.08 s  ClockTime = 11 s

forces forces write:
    sum of forces:
        pressure : (0 0 0)
        viscous  : (0 0 0)
        porous   : (0 0 0)
    sum of moments:
        pressure : (0 0 0)
        viscous  : (0 0 0)
        porous   : (0 0 0)

forceCoeffs forceCoeffs write:
    Cm    = 0
    Cd    = 0
    Cl    = 0
    Cl(f) = 0
    Cl(r) = 0

Time = 0.0725

Courant Number mean: 0.0759972 max: 2.18707
smoothSolver:  Solving for Ux, Initial residual = 0.00344778, Final residual = 6.69559e-08, No Iterations 46
smoothSolver:  Solving for Uy, Initial residual = 0.0144205, Final residual = 8.39401e-08, No Iterations 69
smoothSolver:  Solving for Uz, Initial residual = 0.0119555, Final residual = 8.31901e-08, No Iterations 65
DICPCG:  Solving for p, Initial residual = 0.118558, Final residual = 8.26513e-08, No Iterations 226
time step continuity errors : sum local = 6.37446e-11, global = -9.86597e-14, cumulative = -9.94493e-12
DICPCG:  Solving for p, Initial residual = 0.0768777, Final residual = 9.55422e-08, No Iterations 221
time step continuity errors : sum local = 7.39959e-11, global = 2.06663e-13, cumulative = -9.73826e-12
ExecutionTime = 8.36 s  ClockTime = 11 s

forces forces write:
    sum of forces:
        pressure : (0 0 0)
        viscous  : (0 0 0)
        porous   : (0 0 0)
    sum of moments:
        pressure : (0 0 0)
        viscous  : (0 0 0)
        porous   : (0 0 0)

forceCoeffs forceCoeffs write:
    Cm    = 0
    Cd    = 0
    Cl    = 0
    Cl(f) = 0
    Cl(r) = 0

Time = 0.075

Courant Number mean: 0.0761781 max: 2.18345
smoothSolver:  Solving for Ux, Initial residual = 0.0034395, Final residual = 8.25691e-08, No Iterations 43
smoothSolver:  Solving for Uy, Initial residual = 0.0142582, Final residual = 9.99742e-08, No Iterations 63
smoothSolver:  Solving for Uz, Initial residual = 0.0117857, Final residual = 8.82801e-08, No Iterations 59
DICPCG:  Solving for p, Initial residual = 0.117069, Final residual = 8.89256e-08, No Iterations 226
time step continuity errors : sum local = 6.93449e-11, global = -9.1064e-14, cumulative = -9.82933e-12
DICPCG:  Solving for p, Initial residual = 0.0726588, Final residual = 8.71257e-08, No Iterations 221
time step continuity errors : sum local = 6.85901e-11, global = 1.92999e-13, cumulative = -9.63633e-12
ExecutionTime = 8.65 s  ClockTime = 11 s

forces forces write:
    sum of forces:
        pressure : (0 0 0)
        viscous  : (0 0 0)
        porous   : (0 0 0)
    sum of moments:
        pressure : (0 0 0)
        viscous  : (0 0 0)
        porous   : (0 0 0)

forceCoeffs forceCoeffs write:
    Cm    = 0
    Cd    = 0
    Cl    = 0
    Cl(f) = 0
    Cl(r) = 0

Time = 0.0775

Courant Number mean: 0.076344 max: 2.18023
smoothSolver:  Solving for Ux, Initial residual = 0.0034246, Final residual = 9.70817e-08, No Iterations 47
smoothSolver:  Solving for Uy, Initial residual = 0.014153, Final residual = 9.78357e-08, No Iterations 63
smoothSolver:  Solving for Uz, Initial residual = 0.0116103, Final residual = 8.86809e-08, No Iterations 58
DICPCG:  Solving for p, Initial residual = 0.11984, Final residual = 7.00149e-08, No Iterations 227
time step continuity errors : sum local = 5.52266e-11, global = 4.89386e-14, cumulative = -9.58739e-12
DICPCG:  Solving for p, Initial residual = 0.077336, Final residual = 8.05532e-08, No Iterations 221
time step continuity errors : sum local = 6.3399e-11, global = -8.63185e-14, cumulative = -9.67371e-12
ExecutionTime = 8.94 s  ClockTime = 11 s

forces forces write:
    sum of forces:
        pressure : (0 0 0)
        viscous  : (0 0 0)
        porous   : (0 0 0)
    sum of moments:
        pressure : (0 0 0)
        viscous  : (0 0 0)
        porous   : (0 0 0)

forceCoeffs forceCoeffs write:
    Cm    = 0
    Cd    = 0
    Cl    = 0
    Cl(f) = 0
    Cl(r) = 0

Time = 0.08

Courant Number mean: 0.0765002 max: 2.1772
smoothSolver:  Solving for Ux, Initial residual = 0.00342706, Final residual = 7.79394e-08, No Iterations 49
smoothSolver:  Solving for Uy, Initial residual = 0.0139865, Final residual = 7.06195e-08, No Iterations 62
smoothSolver:  Solving for Uz, Initial residual = 0.0114392, Final residual = 6.12046e-08, No Iterations 59
DICPCG:  Solving for p, Initial residual = 0.125113, Final residual = 7.59207e-08, No Iterations 227
time step continuity errors : sum local = 5.9748e-11, global = 9.54934e-14, cumulative = -9.57822e-12
DICPCG:  Solving for p, Initial residual = 0.0794269, Final residual = 6.99308e-08, No Iterations 221
time step continuity errors : sum local = 5.50098e-11, global = -1.72568e-13, cumulative = -9.75078e-12
ExecutionTime = 9.23 s  ClockTime = 12 s

forces forces write:
    sum of forces:
        pressure : (0 0 0)
        viscous  : (0 0 0)
        porous   : (0 0 0)
    sum of moments:
        pressure : (0 0 0)
        viscous  : (0 0 0)
        porous   : (0 0 0)

forceCoeffs forceCoeffs write:
    Cm    = 0
    Cd    = 0
    Cl    = 0
    Cl(f) = 0
    Cl(r) = 0

Time = 0.0825

Courant Number mean: 0.076647 max: 2.1725
smoothSolver:  Solving for Ux, Initial residual = 0.00341091, Final residual = 7.78152e-08, No Iterations 46
smoothSolver:  Solving for Uy, Initial residual = 0.0138645, Final residual = 7.3012e-08, No Iterations 64
smoothSolver:  Solving for Uz, Initial residual = 0.0112265, Final residual = 6.02981e-08, No Iterations 55
DICPCG:  Solving for p, Initial residual = 0.120184, Final residual = 9.97457e-08, No Iterations 226
time step continuity errors : sum local = 7.93474e-11, global = 1.60692e-13, cumulative = -9.59009e-12
DICPCG:  Solving for p, Initial residual = 0.0730061, Final residual = 7.58343e-08, No Iterations 221
time step continuity errors : sum local = 6.1218e-11, global = -2.3862e-13, cumulative = -9.82871e-12
ExecutionTime = 9.51 s  ClockTime = 12 s

forces forces write:
    sum of forces:
        pressure : (0 0 0)
        viscous  : (0 0 0)
        porous   : (0 0 0)
    sum of moments:
        pressure : (0 0 0)
        viscous  : (0 0 0)
        porous   : (0 0 0)

forceCoeffs forceCoeffs write:
    Cm    = 0
    Cd    = 0
    Cl    = 0
    Cl(f) = 0
    Cl(r) = 0

Time = 0.085

Courant Number mean: 0.0767877 max: 2.16509
smoothSolver:  Solving for Ux, Initial residual = 0.0034021, Final residual = 8.79894e-08, No Iterations 44
smoothSolver:  Solving for Uy, Initial residual = 0.0137964, Final residual = 8.10974e-08, No Iterations 62
smoothSolver:  Solving for Uz, Initial residual = 0.0111367, Final residual = 7.65831e-08, No Iterations 50
DICPCG:  Solving for p, Initial residual = 0.121985, Final residual = 7.37994e-08, No Iterations 227
time step continuity errors : sum local = 5.93226e-11, global = 2.6518e-13, cumulative = -9.56353e-12
DICPCG:  Solving for p, Initial residual = 0.0779573, Final residual = 7.51864e-08, No Iterations 221
time step continuity errors : sum local = 6.05377e-11, global = 6.4008e-15, cumulative = -9.55713e-12
ExecutionTime = 9.79 s  ClockTime = 12 s

forces forces write:
    sum of forces:
        pressure : (0 0 0)
        viscous  : (0 0 0)
        porous   : (0 0 0)
    sum of moments:
        pressure : (0 0 0)
        viscous  : (0 0 0)
        porous   : (0 0 0)

forceCoeffs forceCoeffs write:
    Cm    = 0
    Cd    = 0
    Cl    = 0
    Cl(f) = 0
    Cl(r) = 0

Time = 0.0875

Courant Number mean: 0.0769447 max: 2.15534
smoothSolver:  Solving for Ux, Initial residual = 0.00340551, Final residual = 9.74652e-08, No Iterations 39
smoothSolver:  Solving for Uy, Initial residual = 0.013741, Final residual = 8.82358e-08, No Iterations 58
smoothSolver:  Solving for Uz, Initial residual = 0.0109466, Final residual = 7.92667e-08, No Iterations 55
DICPCG:  Solving for p, Initial residual = 0.124619, Final residual = 8.18318e-08, No Iterations 227
time step continuity errors : sum local = 6.60148e-11, global = 2.15879e-13, cumulative = -9.34125e-12
DICPCG:  Solving for p, Initial residual = 0.076877, Final residual = 8.76649e-08, No Iterations 221
time step continuity errors : sum local = 7.09891e-11, global = 2.17555e-13, cumulative = -9.1237e-12
ExecutionTime = 10.07 s  ClockTime = 13 s

forces forces write:
    sum of forces:
        pressure : (0 0 0)
        viscous  : (0 0 0)
        porous   : (0 0 0)
    sum of moments:
        pressure : (0 0 0)
        viscous  : (0 0 0)
        porous   : (0 0 0)

forceCoeffs forceCoeffs write:
    Cm    = 0
    Cd    = 0
    Cl    = 0
    Cl(f) = 0
    Cl(r) = 0

Time = 0.09

Courant Number mean: 0.0771438 max: 2.14799
smoothSolver:  Solving for Ux, Initial residual = 0.00340271, Final residual = 8.43826e-08, No Iterations 43
smoothSolver:  Solving for Uy, Initial residual = 0.0137344, Final residual = 8.61729e-08, No Iterations 59
smoothSolver:  Solving for Uz, Initial residual = 0.0109197, Final residual = 9.22632e-08, No Iterations 51
DICPCG:  Solving for p, Initial residual = 0.121884, Final residual = 7.90547e-08, No Iterations 227
time step continuity errors : sum local = 6.43028e-11, global = 1.96661e-13, cumulative = -8.92704e-12
DICPCG:  Solving for p, Initial residual = 0.0722359, Final residual = 8.58411e-08, No Iterations 221
time step continuity errors : sum local = 7.01683e-11, global = 2.1569e-13, cumulative = -8.71135e-12
ExecutionTime = 10.34 s  ClockTime = 13 s

forces forces write:
    sum of forces:
        pressure : (0 0 0)
        viscous  : (0 0 0)
        porous   : (0 0 0)
    sum of moments:
        pressure : (0 0 0)
        viscous  : (0 0 0)
        porous   : (0 0 0)

forceCoeffs forceCoeffs write:
    Cm    = 0
    Cd    = 0
    Cl    = 0
    Cl(f) = 0
    Cl(r) = 0

Time = 0.0925

Courant Number mean: 0.0773642 max: 2.14525
smoothSolver:  Solving for Ux, Initial residual = 0.00341539, Final residual = 9.29121e-08, No Iterations 36
smoothSolver:  Solving for Uy, Initial residual = 0.0137017, Final residual = 8.12296e-08, No Iterations 52
smoothSolver:  Solving for Uz, Initial residual = 0.0107533, Final residual = 5.87674e-08, No Iterations 44
DICPCG:  Solving for p, Initial residual = 0.120988, Final residual = 7.40727e-08, No Iterations 227
time step continuity errors : sum local = 6.04557e-11, global = 1.37507e-13, cumulative = -8.57384e-12
DICPCG:  Solving for p, Initial residual = 0.0762, Final residual = 7.23984e-08, No Iterations 221
time step continuity errors : sum local = 5.92572e-11, global = 3.78108e-14, cumulative = -8.53603e-12
ExecutionTime = 10.61 s  ClockTime = 13 s

forces forces write:
    sum of forces:
        pressure : (0 0 0)
        viscous  : (0 0 0)
        porous   : (0 0 0)
    sum of moments:
        pressure : (0 0 0)
        viscous  : (0 0 0)
        porous   : (0 0 0)

forceCoeffs forceCoeffs write:
    Cm    = 0
    Cd    = 0
    Cl    = 0
    Cl(f) = 0
    Cl(r) = 0

Time = 0.095

Courant Number mean: 0.0775986 max: 2.14226
smoothSolver:  Solving for Ux, Initial residual = 0.00340278, Final residual = 9.29217e-08, No Iterations 37
smoothSolver:  Solving for Uy, Initial residual = 0.0137666, Final residual = 8.9446e-08, No Iterations 51
smoothSolver:  Solving for Uz, Initial residual = 0.0107066, Final residual = 9.73542e-08, No Iterations 45
DICPCG:  Solving for p, Initial residual = 0.118337, Final residual = 7.45516e-08, No Iterations 227
time step continuity errors : sum local = 6.14681e-11, global = 8.32869e-14, cumulative = -8.45274e-12
DICPCG:  Solving for p, Initial residual = 0.0744989, Final residual = 9.21167e-08, No Iterations 220
time step continuity errors : sum local = 7.55968e-11, global = 2.40914e-14, cumulative = -8.42865e-12
ExecutionTime = 10.88 s  ClockTime = 13 s

forces forces write:
    sum of forces:
        pressure : (0 0 0)
        viscous  : (0 0 0)
        porous   : (0 0 0)
    sum of moments:
        pressure : (0 0 0)
        viscous  : (0 0 0)
        porous   : (0 0 0)

forceCoeffs forceCoeffs write:
    Cm    = 0
    Cd    = 0
    Cl    = 0
    Cl(f) = 0
    Cl(r) = 0

Time = 0.0975

Courant Number mean: 0.0778361 max: 2.1379
smoothSolver:  Solving for Ux, Initial residual = 0.00339897, Final residual = 7.22084e-08, No Iterations 37
smoothSolver:  Solving for Uy, Initial residual = 0.0137806, Final residual = 8.70772e-08, No Iterations 53
smoothSolver:  Solving for Uz, Initial residual = 0.0106064, Final residual = 8.35151e-08, No Iterations 41
DICPCG:  Solving for p, Initial residual = 0.117253, Final residual = 7.64919e-08, No Iterations 227
time step continuity errors : sum local = 6.28009e-11, global = 8.72669e-14, cumulative = -8.34139e-12
DICPCG:  Solving for p, Initial residual = 0.0693709, Final residual = 9.05752e-08, No Iterations 220
time step continuity errors : sum local = 7.52062e-11, global = -7.30733e-14, cumulative = -8.41446e-12
ExecutionTime = 11.15 s  ClockTime = 14 s

forces forces write:
    sum of forces:
        pressure : (0 0 0)
        viscous  : (0 0 0)
        porous   : (0 0 0)
    sum of moments:
        pressure : (0 0 0)
        viscous  : (0 0 0)
        porous   : (0 0 0)

forceCoeffs forceCoeffs write:
    Cm    = 0
    Cd    = 0
    Cl    = 0
    Cl(f) = 0
    Cl(r) = 0

Time = 0.1

Courant Number mean: 0.0780791 max: 2.13256
smoothSolver:  Solving for Ux, Initial residual = 0.00340531, Final residual = 9.57995e-08, No Iterations 43
smoothSolver:  Solving for Uy, Initial residual = 0.0138358, Final residual = 9.87229e-08, No Iterations 59
smoothSolver:  Solving for Uz, Initial residual = 0.0105489, Final residual = 9.23478e-08, No Iterations 47
DICPCG:  Solving for p, Initial residual = 0.115136, Final residual = 7.9554e-08, No Iterations 227
time step continuity errors : sum local = 6.64274e-11, global = 8.01525e-14, cumulative = -8.33431e-12
DICPCG:  Solving for p, Initial residual = 0.0722545, Final residual = 6.64936e-08, No Iterations 221
time step continuity errors : sum local = 5.574e-11, global = -5.36486e-15, cumulative = -8.33967e-12
ExecutionTime = 11.42 s  ClockTime = 14 s

forces forces write:
    sum of forces:
        pressure : (0 0 0)
        viscous  : (0 0 0)
        porous   : (0 0 0)
    sum of moments:
        pressure : (0 0 0)
        viscous  : (0 0 0)
        porous   : (0 0 0)

forceCoeffs forceCoeffs write:
    Cm    = 0
    Cd    = 0
    Cl    = 0
    Cl(f) = 0
    Cl(r) = 0

Time = 0.1025

Courant Number mean: 0.0783266 max: 2.12733
smoothSolver:  Solving for Ux, Initial residual = 0.00339096, Final residual = 8.67682e-08, No Iterations 46
smoothSolver:  Solving for Uy, Initial residual = 0.0137338, Final residual = 8.11383e-08, No Iterations 48
smoothSolver:  Solving for Uz, Initial residual = 0.0104665, Final residual = 8.52469e-08, No Iterations 52
DICPCG:  Solving for p, Initial residual = 0.114258, Final residual = 7.89024e-08, No Iterations 227
time step continuity errors : sum local = 6.62918e-11, global = 6.00556e-14, cumulative = -8.27962e-12
DICPCG:  Solving for p, Initial residual = 0.0676482, Final residual = 6.07758e-08, No Iterations 221
time step continuity errors : sum local = 5.1392e-11, global = -1.39901e-13, cumulative = -8.41952e-12
ExecutionTime = 11.69 s  ClockTime = 14 s

forces forces write:
    sum of forces:
        pressure : (0 0 0)
        viscous  : (0 0 0)
        porous   : (0 0 0)
    sum of moments:
        pressure : (0 0 0)
        viscous  : (0 0 0)
        porous   : (0 0 0)

forceCoeffs forceCoeffs write:
    Cm    = 0
    Cd    = 0
    Cl    = 0
    Cl(f) = 0
    Cl(r) = 0

Time = 0.105

Courant Number mean: 0.0785733 max: 2.12366
smoothSolver:  Solving for Ux, Initial residual = 0.00341304, Final residual = 8.47754e-08, No Iterations 48
smoothSolver:  Solving for Uy, Initial residual = 0.0136792, Final residual = 8.48332e-08, No Iterations 69
smoothSolver:  Solving for Uz, Initial residual = 0.0103754, Final residual = 9.53286e-08, No Iterations 58
DICPCG:  Solving for p, Initial residual = 0.108717, Final residual = 7.73935e-08, No Iterations 227
time step continuity errors : sum local = 6.5889e-11, global = 4.03467e-14, cumulative = -8.37917e-12
DICPCG:  Solving for p, Initial residual = 0.0662747, Final residual = 9.18777e-08, No Iterations 220
time step continuity errors : sum local = 7.87919e-11, global = -2.80195e-13, cumulative = -8.65936e-12
ExecutionTime = 11.99 s  ClockTime = 15 s

forces forces write:
    sum of forces:
        pressure : (0 0 0)
        viscous  : (0 0 0)
        porous   : (0 0 0)
    sum of moments:
        pressure : (0 0 0)
        viscous  : (0 0 0)
        porous   : (0 0 0)

forceCoeffs forceCoeffs write:
    Cm    = 0
    Cd    = 0
    Cl    = 0
    Cl(f) = 0
    Cl(r) = 0

Time = 0.1075

Courant Number mean: 0.0788166 max: 2.12142
smoothSolver:  Solving for Ux, Initial residual = 0.00343986, Final residual = 9.66746e-08, No Iterations 44
smoothSolver:  Solving for Uy, Initial residual = 0.0136201, Final residual = 8.76073e-08, No Iterations 62
smoothSolver:  Solving for Uz, Initial residual = 0.0102736, Final residual = 9.76602e-08, No Iterations 51
DICPCG:  Solving for p, Initial residual = 0.107262, Final residual = 7.44036e-08, No Iterations 227
time step continuity errors : sum local = 6.36307e-11, global = 5.58552e-14, cumulative = -8.60351e-12
DICPCG:  Solving for p, Initial residual = 0.0665449, Final residual = 8.61077e-08, No Iterations 220
time step continuity errors : sum local = 7.3635e-11, global = -4.76157e-13, cumulative = -9.07967e-12
ExecutionTime = 12.26 s  ClockTime = 15 s

forces forces write:
    sum of forces:
        pressure : (0 0 0)
        viscous  : (0 0 0)
        porous   : (0 0 0)
    sum of moments:
        pressure : (0 0 0)
        viscous  : (0 0 0)
        porous   : (0 0 0)

forceCoeffs forceCoeffs write:
    Cm    = 0
    Cd    = 0
    Cl    = 0
    Cl(f) = 0
    Cl(r) = 0

Time = 0.11

Courant Number mean: 0.079057 max: 2.11973
smoothSolver:  Solving for Ux, Initial residual = 0.00343971, Final residual = 8.47233e-08, No Iterations 40
smoothSolver:  Solving for Uy, Initial residual = 0.0135961, Final residual = 9.24408e-08, No Iterations 47
smoothSolver:  Solving for Uz, Initial residual = 0.0102092, Final residual = 8.25926e-08, No Iterations 47
DICPCG:  Solving for p, Initial residual = 0.104634, Final residual = 7.40566e-08, No Iterations 227
time step continuity errors : sum local = 6.40044e-11, global = 1.11383e-13, cumulative = -8.96828e-12
DICPCG:  Solving for p, Initial residual = 0.0623863, Final residual = 9.12588e-08, No Iterations 220
time step continuity errors : sum local = 7.91608e-11, global = -3.25764e-13, cumulative = -9.29405e-12
ExecutionTime = 12.54 s  ClockTime = 15 s

forces forces write:
    sum of forces:
        pressure : (0 0 0)
        viscous  : (0 0 0)
        porous   : (0 0 0)
    sum of moments:
        pressure : (0 0 0)
        viscous  : (0 0 0)
        porous   : (0 0 0)

forceCoeffs forceCoeffs write:
    Cm    = 0
    Cd    = 0
    Cl    = 0
    Cl(f) = 0
    Cl(r) = 0

Time = 0.1125

Courant Number mean: 0.0792953 max: 2.1174
smoothSolver:  Solving for Ux, Initial residual = 0.00345125, Final residual = 8.71273e-08, No Iterations 42
smoothSolver:  Solving for Uy, Initial residual = 0.013558, Final residual = 8.97737e-08, No Iterations 55
smoothSolver:  Solving for Uz, Initial residual = 0.0101349, Final residual = 8.2284e-08, No Iterations 49
DICPCG:  Solving for p, Initial residual = 0.102738, Final residual = 7.43116e-08, No Iterations 227
time step continuity errors : sum local = 6.39756e-11, global = 1.35336e-13, cumulative = -9.15871e-12
DICPCG:  Solving for p, Initial residual = 0.063229, Final residual = 6.77659e-08, No Iterations 221
time step continuity errors : sum local = 5.83043e-11, global = -1.02542e-13, cumulative = -9.26125e-12
ExecutionTime = 12.81 s  ClockTime = 15 s

forces forces write:
    sum of forces:
        pressure : (0 0 0)
        viscous  : (0 0 0)
        porous   : (0 0 0)
    sum of moments:
        pressure : (0 0 0)
        viscous  : (0 0 0)
        porous   : (0 0 0)

forceCoeffs forceCoeffs write:
    Cm    = 0
    Cd    = 0
    Cl    = 0
    Cl(f) = 0
    Cl(r) = 0

Time = 0.115

Courant Number mean: 0.0795321 max: 2.11431
smoothSolver:  Solving for Ux, Initial residual = 0.00348406, Final residual = 8.68213e-08, No Iterations 46
smoothSolver:  Solving for Uy, Initial residual = 0.0135477, Final residual = 9.47805e-08, No Iterations 61
smoothSolver:  Solving for Uz, Initial residual = 0.0100332, Final residual = 8.89958e-08, No Iterations 53
DICPCG:  Solving for p, Initial residual = 0.103079, Final residual = 7.07947e-08, No Iterations 227
time step continuity errors : sum local = 6.14537e-11, global = 7.70664e-14, cumulative = -9.18419e-12
DICPCG:  Solving for p, Initial residual = 0.0609535, Final residual = 6.18778e-08, No Iterations 221
time step continuity errors : sum local = 5.4033e-11, global = 1.19489e-13, cumulative = -9.0647e-12
ExecutionTime = 13.09 s  ClockTime = 16 s

forces forces write:
    sum of forces:
        pressure : (0 0 0)
        viscous  : (0 0 0)
        porous   : (0 0 0)
    sum of moments:
        pressure : (0 0 0)
        viscous  : (0 0 0)
        porous   : (0 0 0)

forceCoeffs forceCoeffs write:
    Cm    = 0
    Cd    = 0
    Cl    = 0
    Cl(f) = 0
    Cl(r) = 0

Time = 0.1175

Courant Number mean: 0.0797665 max: 2.11156
smoothSolver:  Solving for Ux, Initial residual = 0.00350356, Final residual = 8.46553e-08, No Iterations 48
smoothSolver:  Solving for Uy, Initial residual = 0.0134869, Final residual = 8.53565e-08, No Iterations 61
smoothSolver:  Solving for Uz, Initial residual = 0.0099993, Final residual = 9.52757e-08, No Iterations 54
DICPCG:  Solving for p, Initial residual = 0.100364, Final residual = 6.20336e-08, No Iterations 227
time step continuity errors : sum local = 5.40871e-11, global = 1.20951e-13, cumulative = -8.94375e-12
DICPCG:  Solving for p, Initial residual = 0.0571756, Final residual = 9.42456e-08, No Iterations 220
time step continuity errors : sum local = 8.23492e-11, global = -1.11337e-13, cumulative = -9.05508e-12
ExecutionTime = 13.38 s  ClockTime = 16 s

forces forces write:
    sum of forces:
        pressure : (0 0 0)
        viscous  : (0 0 0)
        porous   : (0 0 0)
    sum of moments:
        pressure : (0 0 0)
        viscous  : (0 0 0)
        porous   : (0 0 0)

forceCoeffs forceCoeffs write:
    Cm    = 0
    Cd    = 0
    Cl    = 0
    Cl(f) = 0
    Cl(r) = 0

Time = 0.12

Courant Number mean: 0.079996 max: 2.10991
smoothSolver:  Solving for Ux, Initial residual = 0.00351232, Final residual = 8.85079e-08, No Iterations 49
smoothSolver:  Solving for Uy, Initial residual = 0.0134258, Final residual = 9.52191e-08, No Iterations 63
smoothSolver:  Solving for Uz, Initial residual = 0.00991028, Final residual = 9.21717e-08, No Iterations 59
DICPCG:  Solving for p, Initial residual = 0.0964801, Final residual = 8.66973e-08, No Iterations 226
time step continuity errors : sum local = 7.60965e-11, global = 3.13032e-13, cumulative = -8.74205e-12
DICPCG:  Solving for p, Initial residual = 0.0591051, Final residual = 6.97523e-08, No Iterations 221
time step continuity errors : sum local = 6.16289e-11, global = -2.78311e-13, cumulative = -9.02036e-12
ExecutionTime = 13.66 s  ClockTime = 16 s

forces forces write:
    sum of forces:
        pressure : (0 0 0)
        viscous  : (0 0 0)
        porous   : (0 0 0)
    sum of moments:
        pressure : (0 0 0)
        viscous  : (0 0 0)
        porous   : (0 0 0)

forceCoeffs forceCoeffs write:
    Cm    = 0
    Cd    = 0
    Cl    = 0
    Cl(f) = 0
    Cl(r) = 0

Time = 0.1225

Courant Number mean: 0.0802195 max: 2.10944
smoothSolver:  Solving for Ux, Initial residual = 0.0035281, Final residual = 8.49857e-08, No Iterations 49
smoothSolver:  Solving for Uy, Initial residual = 0.0134558, Final residual = 9.5029e-08, No Iterations 67
smoothSolver:  Solving for Uz, Initial residual = 0.00985475, Final residual = 9.00835e-08, No Iterations 58
DICPCG:  Solving for p, Initial residual = 0.0926246, Final residual = 7.69189e-08, No Iterations 226
time step continuity errors : sum local = 6.8266e-11, global = 4.43418e-13, cumulative = -8.57695e-12
DICPCG:  Solving for p, Initial residual = 0.0543926, Final residual = 9.36466e-08, No Iterations 220
time step continuity errors : sum local = 8.26292e-11, global = 1.90755e-13, cumulative = -8.38619e-12
ExecutionTime = 13.96 s  ClockTime = 17 s

forces forces write:
    sum of forces:
        pressure : (0 0 0)
        viscous  : (0 0 0)
        porous   : (0 0 0)
    sum of moments:
        pressure : (0 0 0)
        viscous  : (0 0 0)
        porous   : (0 0 0)

forceCoeffs forceCoeffs write:
    Cm    = 0
    Cd    = 0
    Cl    = 0
    Cl(f) = 0
    Cl(r) = 0

Time = 0.125

Courant Number mean: 0.0804395 max: 2.10914
smoothSolver:  Solving for Ux, Initial residual = 0.0035426, Final residual = 9.75887e-08, No Iterations 46
smoothSolver:  Solving for Uy, Initial residual = 0.0135087, Final residual = 9.07641e-08, No Iterations 61
smoothSolver:  Solving for Uz, Initial residual = 0.00982726, Final residual = 8.78516e-08, No Iterations 54
DICPCG:  Solving for p, Initial residual = 0.0933516, Final residual = 8.59538e-08, No Iterations 225
time step continuity errors : sum local = 7.59706e-11, global = 1.18523e-13, cumulative = -8.26767e-12
DICPCG:  Solving for p, Initial residual = 0.0531973, Final residual = 6.90698e-08, No Iterations 221
time step continuity errors : sum local = 6.11816e-11, global = -1.02382e-14, cumulative = -8.27791e-12
ExecutionTime = 14.24 s  ClockTime = 17 s

forces forces write:
    sum of forces:
        pressure : (0 0 0)
        viscous  : (0 0 0)
        porous   : (0 0 0)
    sum of moments:
        pressure : (0 0 0)
        viscous  : (0 0 0)
        porous   : (0 0 0)

forceCoeffs forceCoeffs write:
    Cm    = 0
    Cd    = 0
    Cl    = 0
    Cl(f) = 0
    Cl(r) = 0

Time = 0.1275

Courant Number mean: 0.0806532 max: 2.10777
smoothSolver:  Solving for Ux, Initial residual = 0.00354947, Final residual = 9.59456e-08, No Iterations 45
smoothSolver:  Solving for Uy, Initial residual = 0.0135654, Final residual = 9.2516e-08, No Iterations 45
smoothSolver:  Solving for Uz, Initial residual = 0.00974351, Final residual = 9.61797e-08, No Iterations 52
DICPCG:  Solving for p, Initial residual = 0.0908395, Final residual = 7.1013e-08, No Iterations 226
time step continuity errors : sum local = 6.28698e-11, global = 3.19289e-13, cumulative = -7.95862e-12
DICPCG:  Solving for p, Initial residual = 0.0553461, Final residual = 7.44432e-08, No Iterations 221
time step continuity errors : sum local = 6.5486e-11, global = 5.59256e-14, cumulative = -7.90269e-12
ExecutionTime = 14.51 s  ClockTime = 17 s

forces forces write:
    sum of forces:
        pressure : (0 0 0)
        viscous  : (0 0 0)
        porous   : (0 0 0)
    sum of moments:
        pressure : (0 0 0)
        viscous  : (0 0 0)
        porous   : (0 0 0)

forceCoeffs forceCoeffs write:
    Cm    = 0
    Cd    = 0
    Cl    = 0
    Cl(f) = 0
    Cl(r) = 0

Time = 0.13

Courant Number mean: 0.0808595 max: 2.10442
smoothSolver:  Solving for Ux, Initial residual = 0.00356107, Final residual = 8.8276e-08, No Iterations 46
smoothSolver:  Solving for Uy, Initial residual = 0.0136297, Final residual = 9.23021e-08, No Iterations 57
smoothSolver:  Solving for Uz, Initial residual = 0.00969033, Final residual = 9.09318e-08, No Iterations 51
DICPCG:  Solving for p, Initial residual = 0.090783, Final residual = 7.50082e-08, No Iterations 226
time step continuity errors : sum local = 6.62036e-11, global = 3.89981e-13, cumulative = -7.51271e-12
DICPCG:  Solving for p, Initial residual = 0.0503251, Final residual = 7.00686e-08, No Iterations 221
time step continuity errors : sum local = 6.2193e-11, global = -2.99334e-14, cumulative = -7.54264e-12
ExecutionTime = 14.79 s  ClockTime = 17 s

forces forces write:
    sum of forces:
        pressure : (0 0 0)
        viscous  : (0 0 0)
        porous   : (0 0 0)
    sum of moments:
        pressure : (0 0 0)
        viscous  : (0 0 0)
        porous   : (0 0 0)

forceCoeffs forceCoeffs write:
    Cm    = 0
    Cd    = 0
    Cl    = 0
    Cl(f) = 0
    Cl(r) = 0

Time = 0.1325

Courant Number mean: 0.0810547 max: 2.09935
smoothSolver:  Solving for Ux, Initial residual = 0.00357507, Final residual = 9.8458e-08, No Iterations 45
smoothSolver:  Solving for Uy, Initial residual = 0.0137008, Final residual = 9.46459e-08, No Iterations 58
smoothSolver:  Solving for Uz, Initial residual = 0.00961624, Final residual = 9.24287e-08, No Iterations 52
DICPCG:  Solving for p, Initial residual = 0.0898427, Final residual = 8.21045e-08, No Iterations 226
time step continuity errors : sum local = 7.30738e-11, global = 2.81157e-13, cumulative = -7.26149e-12
DICPCG:  Solving for p, Initial residual = 0.0513538, Final residual = 7.09844e-08, No Iterations 221
time step continuity errors : sum local = 6.34599e-11, global = -1.20983e-13, cumulative = -7.38247e-12
ExecutionTime = 15.07 s  ClockTime = 18 s

forces forces write:
    sum of forces:
        pressure : (0 0 0)
        viscous  : (0 0 0)
        porous   : (0 0 0)
    sum of moments:
        pressure : (0 0 0)
        viscous  : (0 0 0)
        porous   : (0 0 0)

forceCoeffs forceCoeffs write:
    Cm    = 0
    Cd    = 0
    Cl    = 0
    Cl(f) = 0
    Cl(r) = 0

Time = 0.135

Courant Number mean: 0.0812366 max: 2.09334
smoothSolver:  Solving for Ux, Initial residual = 0.00359, Final residual = 9.15612e-08, No Iterations 43
smoothSolver:  Solving for Uy, Initial residual = 0.0137952, Final residual = 8.47243e-08, No Iterations 53
smoothSolver:  Solving for Uz, Initial residual = 0.00956183, Final residual = 8.98324e-08, No Iterations 55
DICPCG:  Solving for p, Initial residual = 0.0858064, Final residual = 8.54989e-08, No Iterations 226
time step continuity errors : sum local = 7.67919e-11, global = 3.05411e-13, cumulative = -7.07706e-12
DICPCG:  Solving for p, Initial residual = 0.0518206, Final residual = 8.55085e-08, No Iterations 221
time step continuity errors : sum local = 7.76102e-11, global = -1.8525e-13, cumulative = -7.26231e-12
ExecutionTime = 15.35 s  ClockTime = 18 s

forces forces write:
    sum of forces:
        pressure : (0 0 0)
        viscous  : (0 0 0)
        porous   : (0 0 0)
    sum of moments:
        pressure : (0 0 0)
        viscous  : (0 0 0)
        porous   : (0 0 0)

forceCoeffs forceCoeffs write:
    Cm    = 0
    Cd    = 0
    Cl    = 0
    Cl(f) = 0
    Cl(r) = 0

Time = 0.1375

Courant Number mean: 0.0814193 max: 2.08697
smoothSolver:  Solving for Ux, Initial residual = 0.00359626, Final residual = 9.64054e-08, No Iterations 34
smoothSolver:  Solving for Uy, Initial residual = 0.0138257, Final residual = 9.63965e-08, No Iterations 62
smoothSolver:  Solving for Uz, Initial residual = 0.00951918, Final residual = 8.90413e-08, No Iterations 54
DICPCG:  Solving for p, Initial residual = 0.0832685, Final residual = 9.01401e-08, No Iterations 226
time step continuity errors : sum local = 8.22646e-11, global = 1.84486e-13, cumulative = -7.07782e-12
DICPCG:  Solving for p, Initial residual = 0.0459692, Final residual = 7.50142e-08, No Iterations 221
time step continuity errors : sum local = 6.83044e-11, global = -4.48282e-14, cumulative = -7.12265e-12
ExecutionTime = 15.62 s  ClockTime = 18 s

forces forces write:
    sum of forces:
        pressure : (0 0 0)
        viscous  : (0 0 0)
        porous   : (0 0 0)
    sum of moments:
        pressure : (0 0 0)
        viscous  : (0 0 0)
        porous   : (0 0 0)

forceCoeffs forceCoeffs write:
    Cm    = 0
    Cd    = 0
    Cl    = 0
    Cl(f) = 0
    Cl(r) = 0

Time = 0.14

Courant Number mean: 0.0816368 max: 2.08087
smoothSolver:  Solving for Ux, Initial residual = 0.00360615, Final residual = 9.43882e-08, No Iterations 38
smoothSolver:  Solving for Uy, Initial residual = 0.013872, Final residual = 9.31275e-08, No Iterations 60
smoothSolver:  Solving for Uz, Initial residual = 0.00941773, Final residual = 9.62614e-08, No Iterations 55
DICPCG:  Solving for p, Initial residual = 0.0819167, Final residual = 9.33558e-08, No Iterations 226
time step continuity errors : sum local = 8.49734e-11, global = 2.93297e-13, cumulative = -6.82935e-12
DICPCG:  Solving for p, Initial residual = 0.0485953, Final residual = 6.97626e-08, No Iterations 221
time step continuity errors : sum local = 6.34935e-11, global = 3.95145e-14, cumulative = -6.78984e-12
ExecutionTime = 15.89 s  ClockTime = 18 s

forces forces write:
    sum of forces:
        pressure : (0 0 0)
        viscous  : (0 0 0)
        porous   : (0 0 0)
    sum of moments:
        pressure : (0 0 0)
        viscous  : (0 0 0)
        porous   : (0 0 0)

forceCoeffs forceCoeffs write:
    Cm    = 0
    Cd    = 0
    Cl    = 0
    Cl(f) = 0
    Cl(r) = 0

Time = 0.1425

Courant Number mean: 0.0818656 max: 2.08452
smoothSolver:  Solving for Ux, Initial residual = 0.00361702, Final residual = 9.55639e-08, No Iterations 41
smoothSolver:  Solving for Uy, Initial residual = 0.0139037, Final residual = 9.56033e-08, No Iterations 52
smoothSolver:  Solving for Uz, Initial residual = 0.00941252, Final residual = 9.92321e-08, No Iterations 51
DICPCG:  Solving for p, Initial residual = 0.082312, Final residual = 6.25335e-08, No Iterations 227
time step continuity errors : sum local = 5.70237e-11, global = -1.36127e-13, cumulative = -6.92596e-12
DICPCG:  Solving for p, Initial residual = 0.0460967, Final residual = 7.04147e-08, No Iterations 221
time step continuity errors : sum local = 6.4072e-11, global = 1.14302e-13, cumulative = -6.81166e-12
ExecutionTime = 16.17 s  ClockTime = 19 s

forces forces write:
    sum of forces:
        pressure : (0 0 0)
        viscous  : (0 0 0)
        porous   : (0 0 0)
    sum of moments:
        pressure : (0 0 0)
        viscous  : (0 0 0)
        porous   : (0 0 0)

forceCoeffs forceCoeffs write:
    Cm    = 0
    Cd    = 0
    Cl    = 0
    Cl(f) = 0
    Cl(r) = 0

Time = 0.145

Courant Number mean: 0.0821031 max: 2.08707
smoothSolver:  Solving for Ux, Initial residual = 0.00362385, Final residual = 8.73959e-08, No Iterations 44
smoothSolver:  Solving for Uy, Initial residual = 0.0140068, Final residual = 8.65559e-08, No Iterations 50
smoothSolver:  Solving for Uz, Initial residual = 0.00933397, Final residual = 9.75462e-08, No Iterations 46
DICPCG:  Solving for p, Initial residual = 0.0827723, Final residual = 8.20154e-08, No Iterations 226
time step continuity errors : sum local = 7.44623e-11, global = 1.43194e-13, cumulative = -6.66847e-12
DICPCG:  Solving for p, Initial residual = 0.0457476, Final residual = 6.92953e-08, No Iterations 221
time step continuity errors : sum local = 6.301e-11, global = 1.4653e-13, cumulative = -6.52194e-12
ExecutionTime = 16.44 s  ClockTime = 19 s

forces forces write:
    sum of forces:
        pressure : (0 0 0)
        viscous  : (0 0 0)
        porous   : (0 0 0)
    sum of moments:
        pressure : (0 0 0)
        viscous  : (0 0 0)
        porous   : (0 0 0)

forceCoeffs forceCoeffs write:
    Cm    = 0
    Cd    = 0
    Cl    = 0
    Cl(f) = 0
    Cl(r) = 0

Time = 0.1475

Courant Number mean: 0.0823502 max: 2.08752
smoothSolver:  Solving for Ux, Initial residual = 0.0036314, Final residual = 9.51612e-08, No Iterations 47
smoothSolver:  Solving for Uy, Initial residual = 0.0140009, Final residual = 9.3867e-08, No Iterations 54
smoothSolver:  Solving for Uz, Initial residual = 0.00928432, Final residual = 8.84664e-08, No Iterations 41
DICPCG:  Solving for p, Initial residual = 0.0817808, Final residual = 6.28485e-08, No Iterations 227
time step continuity errors : sum local = 5.72075e-11, global = 2.4789e-13, cumulative = -6.27405e-12
DICPCG:  Solving for p, Initial residual = 0.0458611, Final residual = 6.9082e-08, No Iterations 221
time step continuity errors : sum local = 6.29323e-11, global = 9.42783e-14, cumulative = -6.17977e-12
ExecutionTime = 16.71 s  ClockTime = 19 s

forces forces write:
    sum of forces:
        pressure : (0 0 0)
        viscous  : (0 0 0)
        porous   : (0 0 0)
    sum of moments:
        pressure : (0 0 0)
        viscous  : (0 0 0)
        porous   : (0 0 0)

forceCoeffs forceCoeffs write:
    Cm    = 0
    Cd    = 0
    Cl    = 0
    Cl(f) = 0
    Cl(r) = 0

Time = 0.15

Courant Number mean: 0.0826044 max: 2.08592
smoothSolver:  Solving for Ux, Initial residual = 0.00363457, Final residual = 8.96733e-08, No Iterations 51
smoothSolver:  Solving for Uy, Initial residual = 0.0140113, Final residual = 8.37821e-08, No Iterations 50
smoothSolver:  Solving for Uz, Initial residual = 0.00921054, Final residual = 8.76076e-08, No Iterations 46
DICPCG:  Solving for p, Initial residual = 0.0820082, Final residual = 9.10213e-08, No Iterations 226
time step continuity errors : sum local = 8.30817e-11, global = 1.94316e-13, cumulative = -5.98545e-12
DICPCG:  Solving for p, Initial residual = 0.0456059, Final residual = 6.63065e-08, No Iterations 221
time step continuity errors : sum local = 6.09437e-11, global = 1.29521e-13, cumulative = -5.85593e-12
ExecutionTime = 16.99 s  ClockTime = 20 s

forces forces write:
    sum of forces:
        pressure : (0 0 0)
        viscous  : (0 0 0)
        porous   : (0 0 0)
    sum of moments:
        pressure : (0 0 0)
        viscous  : (0 0 0)
        porous   : (0 0 0)

forceCoeffs forceCoeffs write:
    Cm    = 0
    Cd    = 0
    Cl    = 0
    Cl(f) = 0
    Cl(r) = 0

Time = 0.1525

Courant Number mean: 0.0828577 max: 2.08313
smoothSolver:  Solving for Ux, Initial residual = 0.00363706, Final residual = 9.78607e-08, No Iterations 54
smoothSolver:  Solving for Uy, Initial residual = 0.0139657, Final residual = 9.14718e-08, No Iterations 62
smoothSolver:  Solving for Uz, Initial residual = 0.00915167, Final residual = 9.79159e-08, No Iterations 43
DICPCG:  Solving for p, Initial residual = 0.0770618, Final residual = 7.45812e-08, No Iterations 226
time step continuity errors : sum local = 6.88501e-11, global = 3.5166e-14, cumulative = -5.82077e-12
DICPCG:  Solving for p, Initial residual = 0.0454406, Final residual = 7.43664e-08, No Iterations 221
time step continuity errors : sum local = 6.88385e-11, global = 6.56427e-15, cumulative = -5.8142e-12
ExecutionTime = 17.26 s  ClockTime = 20 s

forces forces write:
    sum of forces:
        pressure : (0 0 0)
        viscous  : (0 0 0)
        porous   : (0 0 0)
    sum of moments:
        pressure : (0 0 0)
        viscous  : (0 0 0)
        porous   : (0 0 0)

forceCoeffs forceCoeffs write:
    Cm    = 0
    Cd    = 0
    Cl    = 0
    Cl(f) = 0
    Cl(r) = 0

Time = 0.155

Courant Number mean: 0.0831125 max: 2.08891
smoothSolver:  Solving for Ux, Initial residual = 0.00363831, Final residual = 9.02632e-08, No Iterations 56
smoothSolver:  Solving for Uy, Initial residual = 0.0138657, Final residual = 9.8749e-08, No Iterations 60
smoothSolver:  Solving for Uz, Initial residual = 0.00910064, Final residual = 9.2895e-08, No Iterations 56
DICPCG:  Solving for p, Initial residual = 0.078923, Final residual = 8.06771e-08, No Iterations 226
[...]
        porous   : (0 0 0)
    sum of moments:
        pressure : (0 0 0)
        viscous  : (0 0 0)
        porous   : (0 0 0)

forceCoeffs forceCoeffs write:
    Cm    = 0
    Cd    = 0
    Cl    = 0
    Cl(f) = 0
    Cl(r) = 0

Time = 3.96

Courant Number mean: 0.193732 max: 1.94687
smoothSolver:  Solving for Ux, Initial residual = 0.00400624, Final residual = 7.56838e-08, No Iterations 17
smoothSolver:  Solving for Uy, Initial residual = 0.0147781, Final residual = 8.94495e-08, No Iterations 28
smoothSolver:  Solving for Uz, Initial residual = 0.00186566, Final residual = 9.52408e-08, No Iterations 19
DICPCG:  Solving for p, Initial residual = 0.0259356, Final residual = 9.32441e-08, No Iterations 226
time step continuity errors : sum local = 1.71471e-10, global = -6.10769e-14, cumulative = 4.65994e-10
DICPCG:  Solving for p, Initial residual = 0.00396269, Final residual = 9.78958e-08, No Iterations 206
time step continuity errors : sum local = 1.80344e-10, global = 9.34362e-12, cumulative = 4.75338e-10
ExecutionTime = 484.9 s  ClockTime = 490 s

forces forces write:
    sum of forces:
        pressure : (0 0 0)
        viscous  : (0 0 0)
        porous   : (0 0 0)
    sum of moments:
        pressure : (0 0 0)
        viscous  : (0 0 0)
        porous   : (0 0 0)

forceCoeffs forceCoeffs write:
    Cm    = 0
    Cd    = 0
    Cl    = 0
    Cl(f) = 0
    Cl(r) = 0

Time = 3.9625

Courant Number mean: 0.193833 max: 1.9478
smoothSolver:  Solving for Ux, Initial residual = 0.00401931, Final residual = 7.25523e-08, No Iterations 17
smoothSolver:  Solving for Uy, Initial residual = 0.0148413, Final residual = 9.39341e-08, No Iterations 29
smoothSolver:  Solving for Uz, Initial residual = 0.00187169, Final residual = 6.33365e-08, No Iterations 22
DICPCG:  Solving for p, Initial residual = 0.0260093, Final residual = 6.73457e-08, No Iterations 227
time step continuity errors : sum local = 1.24563e-10, global = -1.37701e-13, cumulative = 4.752e-10
DICPCG:  Solving for p, Initial residual = 0.00399918, Final residual = 7.79317e-08, No Iterations 221
time step continuity errors : sum local = 1.44474e-10, global = -4.56953e-14, cumulative = 4.75155e-10
ExecutionTime = 485.12 s  ClockTime = 490 s

forces forces write:
    sum of forces:
        pressure : (0 0 0)
        viscous  : (0 0 0)
        porous   : (0 0 0)
    sum of moments:
        pressure : (0 0 0)
        viscous  : (0 0 0)
        porous   : (0 0 0)

forceCoeffs forceCoeffs write:
    Cm    = 0
    Cd    = 0
    Cl    = 0
    Cl(f) = 0
    Cl(r) = 0

Time = 3.965

Courant Number mean: 0.193982 max: 1.94935
smoothSolver:  Solving for Ux, Initial residual = 0.00403257, Final residual = 6.8982e-08, No Iterations 17
smoothSolver:  Solving for Uy, Initial residual = 0.0148862, Final residual = 9.27556e-08, No Iterations 30
smoothSolver:  Solving for Uz, Initial residual = 0.00187862, Final residual = 7.03864e-08, No Iterations 23
DICPCG:  Solving for p, Initial residual = 0.0261155, Final residual = 6.72758e-08, No Iterations 227
time step continuity errors : sum local = 1.25116e-10, global = -3.46334e-14, cumulative = 4.7512e-10
DICPCG:  Solving for p, Initial residual = 0.00407036, Final residual = 7.45559e-08, No Iterations 221
time step continuity errors : sum local = 1.38854e-10, global = -9.36956e-14, cumulative = 4.75026e-10
ExecutionTime = 485.36 s  ClockTime = 490 s

forces forces write:
    sum of forces:
        pressure : (0 0 0)
        viscous  : (0 0 0)
        porous   : (0 0 0)
    sum of moments:
        pressure : (0 0 0)
        viscous  : (0 0 0)
        porous   : (0 0 0)

forceCoeffs forceCoeffs write:
    Cm    = 0
    Cd    = 0
    Cl    = 0
    Cl(f) = 0
    Cl(r) = 0

Time = 3.9675

Courant Number mean: 0.194134 max: 1.95146
smoothSolver:  Solving for Ux, Initial residual = 0.00404085, Final residual = 6.55451e-08, No Iterations 17
smoothSolver:  Solving for Uy, Initial residual = 0.0149223, Final residual = 8.34264e-08, No Iterations 31
smoothSolver:  Solving for Uz, Initial residual = 0.00187615, Final residual = 8.90085e-08, No Iterations 21
DICPCG:  Solving for p, Initial residual = 0.0257777, Final residual = 6.22823e-08, No Iterations 227
time step continuity errors : sum local = 1.16279e-10, global = 1.07397e-14, cumulative = 4.75037e-10
DICPCG:  Solving for p, Initial residual = 0.00414553, Final residual = 6.90033e-08, No Iterations 221
time step continuity errors : sum local = 1.28936e-10, global = -4.55117e-14, cumulative = 4.74991e-10
ExecutionTime = 485.59 s  ClockTime = 491 s

forces forces write:
    sum of forces:
        pressure : (0 0 0)
        viscous  : (0 0 0)
        porous   : (0 0 0)
    sum of moments:
        pressure : (0 0 0)
        viscous  : (0 0 0)
        porous   : (0 0 0)

forceCoeffs forceCoeffs write:
    Cm    = 0
    Cd    = 0
    Cl    = 0
    Cl(f) = 0
    Cl(r) = 0

Time = 3.97

Courant Number mean: 0.194257 max: 1.9541
smoothSolver:  Solving for Ux, Initial residual = 0.00404176, Final residual = 9.93035e-08, No Iterations 16
smoothSolver:  Solving for Uy, Initial residual = 0.0149556, Final residual = 6.92735e-08, No Iterations 32
smoothSolver:  Solving for Uz, Initial residual = 0.00189342, Final residual = 9.71099e-08, No Iterations 22
DICPCG:  Solving for p, Initial residual = 0.0261469, Final residual = 6.98124e-08, No Iterations 227
time step continuity errors : sum local = 1.30748e-10, global = -4.77605e-13, cumulative = 4.74514e-10
DICPCG:  Solving for p, Initial residual = 0.00420646, Final residual = 9.37723e-08, No Iterations 192
time step continuity errors : sum local = 1.75605e-10, global = 5.86715e-13, cumulative = 4.75101e-10
ExecutionTime = 485.81 s  ClockTime = 491 s

forces forces write:
    sum of forces:
        pressure : (0 0 0)
        viscous  : (0 0 0)
        porous   : (0 0 0)
    sum of moments:
        pressure : (0 0 0)
        viscous  : (0 0 0)
        porous   : (0 0 0)

forceCoeffs forceCoeffs write:
    Cm    = 0
    Cd    = 0
    Cl    = 0
    Cl(f) = 0
    Cl(r) = 0

Time = 3.9725

Courant Number mean: 0.194363 max: 1.95725
smoothSolver:  Solving for Ux, Initial residual = 0.00403702, Final residual = 7.09858e-08, No Iterations 17
smoothSolver:  Solving for Uy, Initial residual = 0.0150165, Final residual = 8.96867e-08, No Iterations 32
smoothSolver:  Solving for Uz, Initial residual = 0.00189382, Final residual = 5.93784e-08, No Iterations 22
DICPCG:  Solving for p, Initial residual = 0.0266796, Final residual = 7.56969e-08, No Iterations 227
time step continuity errors : sum local = 1.42015e-10, global = -5.17415e-13, cumulative = 4.74583e-10
DICPCG:  Solving for p, Initial residual = 0.00435021, Final residual = 7.91638e-08, No Iterations 221
time step continuity errors : sum local = 1.48579e-10, global = 8.75311e-14, cumulative = 4.74671e-10
ExecutionTime = 486.04 s  ClockTime = 491 s

forces forces write:
    sum of forces:
        pressure : (0 0 0)
        viscous  : (0 0 0)
        porous   : (0 0 0)
    sum of moments:
        pressure : (0 0 0)
        viscous  : (0 0 0)
        porous   : (0 0 0)

forceCoeffs forceCoeffs write:
    Cm    = 0
    Cd    = 0
    Cl    = 0
    Cl(f) = 0
    Cl(r) = 0

Time = 3.975

Courant Number mean: 0.19446 max: 1.96089
smoothSolver:  Solving for Ux, Initial residual = 0.0040327, Final residual = 9.47785e-08, No Iterations 17
smoothSolver:  Solving for Uy, Initial residual = 0.0150753, Final residual = 6.56417e-08, No Iterations 33
smoothSolver:  Solving for Uz, Initial residual = 0.00189184, Final residual = 8.59876e-08, No Iterations 24
DICPCG:  Solving for p, Initial residual = 0.0274084, Final residual = 7.11935e-08, No Iterations 227
time step continuity errors : sum local = 1.33996e-10, global = -2.71981e-13, cumulative = 4.74399e-10
DICPCG:  Solving for p, Initial residual = 0.00448406, Final residual = 9.92459e-08, No Iterations 193
time step continuity errors : sum local = 1.86799e-10, global = -1.75955e-11, cumulative = 4.56803e-10
ExecutionTime = 486.27 s  ClockTime = 491 s

forces forces write:
    sum of forces:
        pressure : (0 0 0)
        viscous  : (0 0 0)
        porous   : (0 0 0)
    sum of moments:
        pressure : (0 0 0)
        viscous  : (0 0 0)
        porous   : (0 0 0)

forceCoeffs forceCoeffs write:
    Cm    = 0
    Cd    = 0
    Cl    = 0
    Cl(f) = 0
    Cl(r) = 0

Time = 3.9775

Courant Number mean: 0.194548 max: 1.96495
smoothSolver:  Solving for Ux, Initial residual = 0.00403087, Final residual = 9.87783e-08, No Iterations 20
smoothSolver:  Solving for Uy, Initial residual = 0.0151565, Final residual = 7.96562e-08, No Iterations 33
smoothSolver:  Solving for Uz, Initial residual = 0.00189479, Final residual = 7.50567e-08, No Iterations 19
DICPCG:  Solving for p, Initial residual = 0.0277542, Final residual = 6.57757e-08, No Iterations 227
time step continuity errors : sum local = 1.24043e-10, global = 1.01673e-13, cumulative = 4.56905e-10
DICPCG:  Solving for p, Initial residual = 0.00455467, Final residual = 7.88123e-08, No Iterations 221
time step continuity errors : sum local = 1.48714e-10, global = 7.41081e-14, cumulative = 4.56979e-10
ExecutionTime = 486.5 s  ClockTime = 492 s

forces forces write:
    sum of forces:
        pressure : (0 0 0)
        viscous  : (0 0 0)
        porous   : (0 0 0)
    sum of moments:
        pressure : (0 0 0)
        viscous  : (0 0 0)
        porous   : (0 0 0)

forceCoeffs forceCoeffs write:
    Cm    = 0
    Cd    = 0
    Cl    = 0
    Cl(f) = 0
    Cl(r) = 0

Time = 3.98

Courant Number mean: 0.19463 max: 1.96932
smoothSolver:  Solving for Ux, Initial residual = 0.00402838, Final residual = 9.48991e-08, No Iterations 21
smoothSolver:  Solving for Uy, Initial residual = 0.0152213, Final residual = 9.36202e-08, No Iterations 33
smoothSolver:  Solving for Uz, Initial residual = 0.00189551, Final residual = 8.49883e-08, No Iterations 28
DICPCG:  Solving for p, Initial residual = 0.0278092, Final residual = 9.90295e-08, No Iterations 226
time step continuity errors : sum local = 1.8723e-10, global = -1.03075e-13, cumulative = 4.56876e-10
DICPCG:  Solving for p, Initial residual = 0.00467729, Final residual = 7.97234e-08, No Iterations 221
time step continuity errors : sum local = 1.507e-10, global = 6.27332e-14, cumulative = 4.56939e-10
ExecutionTime = 486.75 s  ClockTime = 492 s

forces forces write:
    sum of forces:
        pressure : (0 0 0)
        viscous  : (0 0 0)
        porous   : (0 0 0)
    sum of moments:
        pressure : (0 0 0)
        viscous  : (0 0 0)
        porous   : (0 0 0)

forceCoeffs forceCoeffs write:
    Cm    = 0
    Cd    = 0
    Cl    = 0
    Cl(f) = 0
    Cl(r) = 0

Time = 3.9825

Courant Number mean: 0.19467 max: 1.97391
smoothSolver:  Solving for Ux, Initial residual = 0.00402423, Final residual = 8.25166e-08, No Iterations 22
smoothSolver:  Solving for Uy, Initial residual = 0.0152674, Final residual = 5.8512e-08, No Iterations 34
smoothSolver:  Solving for Uz, Initial residual = 0.00190216, Final residual = 9.89343e-08, No Iterations 35
DICPCG:  Solving for p, Initial residual = 0.0275809, Final residual = 9.47801e-08, No Iterations 226
time step continuity errors : sum local = 1.79571e-10, global = -1.77214e-13, cumulative = 4.56761e-10
DICPCG:  Solving for p, Initial residual = 0.00459448, Final residual = 7.15014e-08, No Iterations 221
time step continuity errors : sum local = 1.35334e-10, global = -4.78392e-15, cumulative = 4.56757e-10
ExecutionTime = 486.99 s  ClockTime = 492 s

forces forces write:
    sum of forces:
        pressure : (0 0 0)
        viscous  : (0 0 0)
        porous   : (0 0 0)
    sum of moments:
        pressure : (0 0 0)
        viscous  : (0 0 0)
        porous   : (0 0 0)

forceCoeffs forceCoeffs write:
    Cm    = 0
    Cd    = 0
    Cl    = 0
    Cl(f) = 0
    Cl(r) = 0

Time = 3.985

Courant Number mean: 0.194669 max: 1.97861
smoothSolver:  Solving for Ux, Initial residual = 0.00402149, Final residual = 9.90878e-08, No Iterations 23
smoothSolver:  Solving for Uy, Initial residual = 0.0153125, Final residual = 6.50355e-08, No Iterations 34
smoothSolver:  Solving for Uz, Initial residual = 0.00190694, Final residual = 9.67418e-08, No Iterations 29
DICPCG:  Solving for p, Initial residual = 0.0279417, Final residual = 6.88222e-08, No Iterations 227
time step continuity errors : sum local = 1.30482e-10, global = 7.76282e-14, cumulative = 4.56834e-10
DICPCG:  Solving for p, Initial residual = 0.00476686, Final residual = 7.37189e-08, No Iterations 221
time step continuity errors : sum local = 1.39503e-10, global = 2.01655e-13, cumulative = 4.57036e-10
ExecutionTime = 487.22 s  ClockTime = 492 s

forces forces write:
    sum of forces:
        pressure : (0 0 0)
        viscous  : (0 0 0)
        porous   : (0 0 0)
    sum of moments:
        pressure : (0 0 0)
        viscous  : (0 0 0)
        porous   : (0 0 0)

forceCoeffs forceCoeffs write:
    Cm    = 0
    Cd    = 0
    Cl    = 0
    Cl(f) = 0
    Cl(r) = 0

Time = 3.9875

Courant Number mean: 0.194651 max: 1.98334
smoothSolver:  Solving for Ux, Initial residual = 0.00401843, Final residual = 7.27366e-08, No Iterations 28
smoothSolver:  Solving for Uy, Initial residual = 0.0153736, Final residual = 7.07009e-08, No Iterations 34
smoothSolver:  Solving for Uz, Initial residual = 0.00191076, Final residual = 9.26479e-08, No Iterations 28
DICPCG:  Solving for p, Initial residual = 0.0275925, Final residual = 6.50386e-08, No Iterations 227
time step continuity errors : sum local = 1.23347e-10, global = 1.01419e-13, cumulative = 4.57137e-10
DICPCG:  Solving for p, Initial residual = 0.00463633, Final residual = 7.68306e-08, No Iterations 221
time step continuity errors : sum local = 1.45655e-10, global = 1.28511e-13, cumulative = 4.57266e-10
ExecutionTime = 487.47 s  ClockTime = 492 s

forces forces write:
    sum of forces:
        pressure : (0 0 0)
        viscous  : (0 0 0)
        porous   : (0 0 0)
    sum of moments:
        pressure : (0 0 0)
        viscous  : (0 0 0)
        porous   : (0 0 0)

forceCoeffs forceCoeffs write:
    Cm    = 0
    Cd    = 0
    Cl    = 0
    Cl(f) = 0
    Cl(r) = 0

Time = 3.99

Courant Number mean: 0.194642 max: 1.98798
smoothSolver:  Solving for Ux, Initial residual = 0.00401571, Final residual = 8.47019e-08, No Iterations 28
smoothSolver:  Solving for Uy, Initial residual = 0.0154478, Final residual = 7.59616e-08, No Iterations 34
smoothSolver:  Solving for Uz, Initial residual = 0.00191093, Final residual = 8.90225e-08, No Iterations 33
DICPCG:  Solving for p, Initial residual = 0.0277261, Final residual = 6.7922e-08, No Iterations 227
time step continuity errors : sum local = 1.29016e-10, global = 1.67544e-13, cumulative = 4.57433e-10
DICPCG:  Solving for p, Initial residual = 0.00462758, Final residual = 8.01249e-08, No Iterations 221
time step continuity errors : sum local = 1.52133e-10, global = 4.68856e-14, cumulative = 4.5748e-10
ExecutionTime = 487.71 s  ClockTime = 493 s

forces forces write:
    sum of forces:
        pressure : (0 0 0)
        viscous  : (0 0 0)
        porous   : (0 0 0)
    sum of moments:
        pressure : (0 0 0)
        viscous  : (0 0 0)
        porous   : (0 0 0)

forceCoeffs forceCoeffs write:
    Cm    = 0
    Cd    = 0
    Cl    = 0
    Cl(f) = 0
    Cl(r) = 0

Time = 3.9925

Courant Number mean: 0.194582 max: 1.99248
smoothSolver:  Solving for Ux, Initial residual = 0.00401766, Final residual = 9.7296e-08, No Iterations 28
smoothSolver:  Solving for Uy, Initial residual = 0.0155185, Final residual = 7.97052e-08, No Iterations 34
smoothSolver:  Solving for Uz, Initial residual = 0.00191611, Final residual = 8.17732e-08, No Iterations 38
DICPCG:  Solving for p, Initial residual = 0.0274644, Final residual = 6.64283e-08, No Iterations 227
time step continuity errors : sum local = 1.26281e-10, global = 2.42699e-13, cumulative = 4.57723e-10
DICPCG:  Solving for p, Initial residual = 0.00459281, Final residual = 8.24125e-08, No Iterations 221
time step continuity errors : sum local = 1.56384e-10, global = -2.88881e-14, cumulative = 4.57694e-10
ExecutionTime = 487.97 s  ClockTime = 493 s

forces forces write:
    sum of forces:
        pressure : (0 0 0)
        viscous  : (0 0 0)
        porous   : (0 0 0)
    sum of moments:
        pressure : (0 0 0)
        viscous  : (0 0 0)
        porous   : (0 0 0)

forceCoeffs forceCoeffs write:
    Cm    = 0
    Cd    = 0
    Cl    = 0
    Cl(f) = 0
    Cl(r) = 0

Time = 3.995

Courant Number mean: 0.19447 max: 1.99674
smoothSolver:  Solving for Ux, Initial residual = 0.00401672, Final residual = 8.25325e-08, No Iterations 29
smoothSolver:  Solving for Uy, Initial residual = 0.0155895, Final residual = 8.11315e-08, No Iterations 34
smoothSolver:  Solving for Uz, Initial residual = 0.00191215, Final residual = 8.61556e-08, No Iterations 34
DICPCG:  Solving for p, Initial residual = 0.0281331, Final residual = 7.34442e-08, No Iterations 227
time step continuity errors : sum local = 1.3957e-10, global = 2.12131e-13, cumulative = 4.57906e-10
DICPCG:  Solving for p, Initial residual = 0.00452805, Final residual = 7.91722e-08, No Iterations 221
time step continuity errors : sum local = 1.50349e-10, global = -1.35739e-13, cumulative = 4.57771e-10
ExecutionTime = 488.21 s  ClockTime = 493 s

forces forces write:
    sum of forces:
        pressure : (0 0 0)
        viscous  : (0 0 0)
        porous   : (0 0 0)
    sum of moments:
        pressure : (0 0 0)
        viscous  : (0 0 0)
        porous   : (0 0 0)

forceCoeffs forceCoeffs write:
    Cm    = 0
    Cd    = 0
    Cl    = 0
    Cl(f) = 0
    Cl(r) = 0

Time = 3.9975

Courant Number mean: 0.194368 max: 2.00071
smoothSolver:  Solving for Ux, Initial residual = 0.00401333, Final residual = 9.80944e-08, No Iterations 33
smoothSolver:  Solving for Uy, Initial residual = 0.0156486, Final residual = 7.99074e-08, No Iterations 34
smoothSolver:  Solving for Uz, Initial residual = 0.00191813, Final residual = 8.29018e-08, No Iterations 36
DICPCG:  Solving for p, Initial residual = 0.0285798, Final residual = 7.22461e-08, No Iterations 227
time step continuity errors : sum local = 1.37336e-10, global = 2.28556e-13, cumulative = 4.57999e-10
DICPCG:  Solving for p, Initial residual = 0.00450147, Final residual = 7.4763e-08, No Iterations 221
time step continuity errors : sum local = 1.41998e-10, global = -4.09755e-13, cumulative = 4.57589e-10
ExecutionTime = 488.47 s  ClockTime = 493 s

forces forces write:
    sum of forces:
        pressure : (0 0 0)
        viscous  : (0 0 0)
        porous   : (0 0 0)
    sum of moments:
        pressure : (0 0 0)
        viscous  : (0 0 0)
        porous   : (0 0 0)

forceCoeffs forceCoeffs write:
    Cm    = 0
    Cd    = 0
    Cl    = 0
    Cl(f) = 0
    Cl(r) = 0

Time = 4

Courant Number mean: 0.194306 max: 2.00435
smoothSolver:  Solving for Ux, Initial residual = 0.00400976, Final residual = 9.44932e-08, No Iterations 34
smoothSolver:  Solving for Uy, Initial residual = 0.0157206, Final residual = 8.0221e-08, No Iterations 34
smoothSolver:  Solving for Uz, Initial residual = 0.00192927, Final residual = 9.16698e-08, No Iterations 39
DICPCG:  Solving for p, Initial residual = 0.027777, Final residual = 8.54706e-08, No Iterations 226
time step continuity errors : sum local = 1.62299e-10, global = 8.30268e-14, cumulative = 4.57672e-10
DICPCG:  Solving for p, Initial residual = 0.00439058, Final residual = 7.29719e-08, No Iterations 221
time step continuity errors : sum local = 1.38227e-10, global = -7.67482e-13, cumulative = 4.56905e-10
ExecutionTime = 488.79 s  ClockTime = 494 s

forces forces write:
    sum of forces:
        pressure : (0 0 0)
        viscous  : (0 0 0)
        porous   : (0 0 0)
    sum of moments:
        pressure : (0 0 0)
        viscous  : (0 0 0)
        porous   : (0 0 0)

forceCoeffs forceCoeffs write:
    Cm    = 0
    Cd    = 0
    Cl    = 0
    Cl(f) = 0
    Cl(r) = 0

End

