/*---------------------------------------------------------------------------*\
  =========                 |
  \\      /  F ield         | OpenFOAM: The Open Source CFD Toolbox
   \\    /   O peration     | Website:  https://openfoam.org
    \\  /    A nd           | Version:  7
     \\/     M anipulation  |
\*---------------------------------------------------------------------------*/
Build  : 7
Exec   : checkMesh
Date   : Mar 21 2024
Time   : 19:06:26
Host   : "c211-032.frontera.tacc.utexas.edu"
PID    : 151029
I/O    : uncollated
Case   : /work2/09043/kjm24/frontera/COE347/circular-cylinderB2
nProcs : 1
sigFpe : Enabling floating point exception trapping (FOAM_SIGFPE).
fileModificationChecking : Monitoring run-time modified files using timeStampMaster (fileModificationSkew 10)
allowSystemOperations : Allowing user-supplied system call operations

// * * * * * * * * * * * * * * * * * * * * * * * * * * * * * * * * * * * * * //
Create time

Create polyMesh for time = 0

Time = 0

Mesh stats
    points:           47160
    internal points:  0
    faces:            93180
    internal faces:   46020
    cells:            23200
    faces per cell:   6
    boundary patches: 6
    point zones:      0
    face zones:       0
    cell zones:       0

Overall number of cells of each type:
    hexahedra:     23200
    prisms:        0
    wedges:        0
    pyramids:      0
    tet wedges:    0
    tetrahedra:    0
    polyhedra:     0

Checking topology...
    Boundary definition OK.
    Cell to face addressing OK.
    Point usage OK.
    Upper triangular ordering OK.
    Face vertices OK.
    Number of regions: 1 (OK).

Checking patch topology for multiply connected surfaces...
    Patch               Faces    Points   Surface topology                  
    inlet               180      362      ok (non-closed singly connected)  
    outlet              180      362      ok (non-closed singly connected)  
    cylinder            160      320      ok (non-closed singly connected)  
    top                 120      242      ok (non-closed singly connected)  
    bottom              120      242      ok (non-closed singly connected)  
    defaultFaces        46400    47160    ok (non-closed singly connected)  

Checking geometry...
    Overall domain bounding box (-4 -7 -0.05) (9 7 0.05)
    Mesh has 2 geometric (non-empty/wedge) directions (1 1 0)
    Mesh has 2 solution (non-empty) directions (1 1 0)
    All edges aligned with or perpendicular to non-empty directions.
    Boundary openness (-8.3286e-19 3.86391e-18 3.72113e-16) OK.
    Max cell openness = 2.39908e-16 OK.
    Max aspect ratio = 13.652 OK.
    Minimum face area = 0.000460175. Maximum face area = 0.0835702.  Face area magnitudes OK.
    Min volume = 4.60175e-05. Max volume = 0.00835702.  Total volume = 18.1215.  Cell volumes OK.
    Mesh non-orthogonality Max: 43.6901 average: 11.0303
    Non-orthogonality check OK.
    Face pyramids OK.
    Max skewness = 0.788348 OK.
    Coupled point location match (average 0) OK.

Mesh OK.

End

