/*---------------------------------------------------------------------------*\
  =========                 |
  \\      /  F ield         | OpenFOAM: The Open Source CFD Toolbox
   \\    /   O peration     | Website:  https://openfoam.org
    \\  /    A nd           | Version:  7
     \\/     M anipulation  |
\*---------------------------------------------------------------------------*/
Build  : 7
Exec   : icoFoam
Date   : Mar 14 2024
Time   : 19:47:39
Host   : "login4.frontera.tacc.utexas.edu"
PID    : 3611
I/O    : uncollated
Case   : /work2/09043/kjm24/frontera/COE347/circular-cylinder
nProcs : 1
sigFpe : Enabling floating point exception trapping (FOAM_SIGFPE).
fileModificationChecking : Monitoring run-time modified files using timeStampMaster (fileModificationSkew 10)
allowSystemOperations : Allowing user-supplied system call operations

// * * * * * * * * * * * * * * * * * * * * * * * * * * * * * * * * * * * * * //
Create time

Create mesh for time = 0

Reading transportProperties

Reading field p

Reading field U

Reading/calculating face flux field phi


Starting time loop

Reading set description:
    line

forces forces:
    Not including porosity effects
forces forceCoeffs:
    Not including porosity effects
forceCoeffs forceCoeffs:
    Not including porosity effects
Time = 0.005

Courant Number mean: 0.0485896 max: 0.241295
smoothSolver:  Solving for Ux, Initial residual = 1, Final residual = 1.19733e-08, No Iterations 4
smoothSolver:  Solving for Uy, Initial residual = 0, Final residual = 0, No Iterations 0
DICPCG:  Solving for p, Initial residual = 1, Final residual = 8.47187e-08, No Iterations 126
time step continuity errors : sum local = 1.37142e-11, global = 1.12143e-13, cumulative = 1.12143e-13
DICPCG:  Solving for p, Initial residual = 0.036827, Final residual = 8.36923e-08, No Iterations 110
time step continuity errors : sum local = 9.34166e-11, global = 5.08413e-13, cumulative = 6.20556e-13
ExecutionTime = 0.26 s  ClockTime = 7 s

forces forces write:
    sum of forces:
        pressure : (15.2824 4.03571e-07 -1.87956e-26)
        viscous  : (0.115076 7.75951e-10 6.34456e-21)
        porous   : (0 0 0)
    sum of moments:
        pressure : (-1.62531e-18 -3.63839e-19 -1.10047e-17)
        viscous  : (-3.37759e-21 -2.58481e-20 -1.15359e-11)
        porous   : (0 0 0)

forceCoeffs forceCoeffs write:
    Cm    = -2.30718e-10
    Cd    = 307.95
    Cl    = 8.08693e-06
    Cl(f) = 4.04323e-06
    Cl(r) = 4.0437e-06

Time = 0.01

Courant Number mean: 0.0516406 max: 0.442531
smoothSolver:  Solving for Ux, Initial residual = 0.344487, Final residual = 4.85917e-09, No Iterations 4
smoothSolver:  Solving for Uy, Initial residual = 0.333044, Final residual = 1.97846e-09, No Iterations 4
DICPCG:  Solving for p, Initial residual = 0.187263, Final residual = 8.95846e-08, No Iterations 121
time step continuity errors : sum local = 8.96732e-11, global = -3.45846e-13, cumulative = 2.7471e-13
DICPCG:  Solving for p, Initial residual = 0.156342, Final residual = 8.02443e-08, No Iterations 118
time step continuity errors : sum local = 2.01734e-11, global = 4.66361e-14, cumulative = 3.21346e-13
ExecutionTime = 0.29 s  ClockTime = 7 s

forces forces write:
    sum of forces:
        pressure : (0.390756 -4.06978e-07 1.00319e-26)
        viscous  : (0.107319 -1.6579e-10 -6.77215e-22)
        porous   : (0 0 0)
    sum of moments:
        pressure : (-4.21154e-20 -9.04227e-21 1.60005e-18)
        viscous  : (-8.1142e-22 -8.60128e-21 -1.5102e-12)
        porous   : (0 0 0)

forceCoeffs forceCoeffs write:
    Cm    = -3.0204e-11
    Cd    = 9.9615
    Cl    = -8.14288e-06
    Cl(f) = -4.07147e-06
    Cl(r) = -4.07141e-06

Time = 0.015

Courant Number mean: 0.0516751 max: 0.443007
smoothSolver:  Solving for Ux, Initial residual = 0.0199792, Final residual = 1.15485e-08, No Iterations 3
smoothSolver:  Solving for Uy, Initial residual = 0.0289891, Final residual = 1.29798e-08, No Iterations 3
DICPCG:  Solving for p, Initial residual = 0.539077, Final residual = 9.18995e-08, No Iterations 115
time step continuity errors : sum local = 1.21813e-11, global = -1.36811e-13, cumulative = 1.84535e-13
DICPCG:  Solving for p, Initial residual = 0.0786116, Final residual = 8.42447e-08, No Iterations 109
time step continuity errors : sum local = 6.36947e-12, global = 3.33398e-14, cumulative = 2.17875e-13
ExecutionTime = 0.31 s  ClockTime = 7 s

forces forces write:
    sum of forces:
        pressure : (0.158451 4.73511e-08 -1.47003e-27)
        viscous  : (0.103497 -1.72855e-11 -6.16451e-22)
        porous   : (0 0 0)
    sum of moments:
        pressure : (-1.6817e-20 -3.81024e-21 7.73341e-19)
        viscous  : (-9.6768e-22 -7.99074e-21 1.32359e-11)
        porous   : (0 0 0)

forceCoeffs forceCoeffs write:
    Cm    = 2.64718e-10
    Cd    = 5.23896
    Cl    = 9.46676e-07
    Cl(f) = 4.73603e-07
    Cl(r) = 4.73073e-07

Time = 0.02

Courant Number mean: 0.0516831 max: 0.436794
smoothSolver:  Solving for Ux, Initial residual = 0.00657867, Final residual = 1.01359e-08, No Iterations 3
smoothSolver:  Solving for Uy, Initial residual = 0.00503154, Final residual = 3.51599e-09, No Iterations 3
DICPCG:  Solving for p, Initial residual = 0.141881, Final residual = 8.42087e-08, No Iterations 104
time step continuity errors : sum local = 5.79407e-12, global = -5.62698e-14, cumulative = 1.61605e-13
DICPCG:  Solving for p, Initial residual = 0.0129117, Final residual = 8.27388e-08, No Iterations 96
time step continuity errors : sum local = 5.0289e-12, global = 1.10756e-14, cumulative = 1.72681e-13
ExecutionTime = 0.33 s  ClockTime = 7 s

forces forces write:
    sum of forces:
        pressure : (0.114649 3.74302e-10 1.20031e-27)
        viscous  : (0.100422 -2.02199e-11 -6.43281e-22)
        porous   : (0 0 0)
    sum of moments:
        pressure : (-1.21634e-20 -2.75673e-21 -6.4798e-20)
        viscous  : (-9.43991e-22 -7.72464e-21 1.04172e-11)
        porous   : (0 0 0)

forceCoeffs forceCoeffs write:
    Cm    = 2.08343e-10
    Cd    = 4.3014
    Cl    = 7.08164e-09
    Cl(f) = 3.74917e-09
    Cl(r) = 3.33248e-09

Time = 0.025

Courant Number mean: 0.0516891 max: 0.430446
smoothSolver:  Solving for Ux, Initial residual = 0.00568419, Final residual = 8.91075e-09, No Iterations 3
smoothSolver:  Solving for Uy, Initial residual = 0.00417968, Final residual = 2.36775e-09, No Iterations 3
DICPCG:  Solving for p, Initial residual = 0.0883399, Final residual = 9.16694e-08, No Iterations 98
time step continuity errors : sum local = 5.21848e-12, global = 4.71039e-14, cumulative = 2.19784e-13
DICPCG:  Solving for p, Initial residual = 0.00692464, Final residual = 6.91701e-08, No Iterations 92
time step continuity errors : sum local = 3.63487e-12, global = 1.15088e-14, cumulative = 2.31293e-13
ExecutionTime = 0.34 s  ClockTime = 7 s

forces forces write:
    sum of forces:
        pressure : (0.0985969 -7.3241e-09 -4.47242e-28)
        viscous  : (0.0977012 -4.82599e-11 -6.72093e-22)
        porous   : (0 0 0)
    sum of moments:
        pressure : (-1.04589e-20 -2.37014e-21 2.97944e-19)
        viscous  : (-9.13617e-22 -7.51469e-21 7.08638e-12)
        porous   : (0 0 0)

forceCoeffs forceCoeffs write:
    Cm    = 1.41728e-10
    Cd    = 3.92596
    Cl    = -1.47447e-07
    Cl(f) = -7.35819e-08
    Cl(r) = -7.38654e-08

Time = 0.03

Courant Number mean: 0.0516936 max: 0.423885
smoothSolver:  Solving for Ux, Initial residual = 0.0051708, Final residual = 7.66181e-09, No Iterations 3
smoothSolver:  Solving for Uy, Initial residual = 0.0037489, Final residual = 9.67464e-08, No Iterations 2
DICPCG:  Solving for p, Initial residual = 0.0685734, Final residual = 8.39324e-08, No Iterations 102
time step continuity errors : sum local = 4.19619e-12, global = 2.13898e-14, cumulative = 2.52683e-13
DICPCG:  Solving for p, Initial residual = 0.00469636, Final residual = 9.79574e-08, No Iterations 74
time step continuity errors : sum local = 4.60399e-12, global = 4.63395e-14, cumulative = 2.99023e-13
ExecutionTime = 0.36 s  ClockTime = 7 s

forces forces write:
    sum of forces:
        pressure : (0.0913187 -2.06238e-08 -4.57191e-30)
        viscous  : (0.0952164 -2.43176e-11 -7.0322e-22)
        porous   : (0 0 0)
    sum of moments:
        pressure : (-9.67632e-21 -2.1961e-21 -2.31319e-19)
        viscous  : (-8.82696e-22 -7.3296e-21 2.75503e-11)
        porous   : (0 0 0)

forceCoeffs forceCoeffs write:
    Cm    = 5.51006e-10
    Cd    = 3.7307
    Cl    = -4.12962e-07
    Cl(f) = -2.0593e-07
    Cl(r) = -2.07032e-07

Time = 0.035

Courant Number mean: 0.0516972 max: 0.417394
smoothSolver:  Solving for Ux, Initial residual = 0.00481389, Final residual = 6.54833e-09, No Iterations 3
smoothSolver:  Solving for Uy, Initial residual = 0.00348607, Final residual = 8.0472e-08, No Iterations 2
DICPCG:  Solving for p, Initial residual = 0.0566941, Final residual = 9.12731e-08, No Iterations 102
time step continuity errors : sum local = 4.11971e-12, global = 2.45465e-14, cumulative = 3.23569e-13
DICPCG:  Solving for p, Initial residual = 0.00361205, Final residual = 9.76374e-08, No Iterations 83
time step continuity errors : sum local = 4.18696e-12, global = 6.35728e-14, cumulative = 3.87142e-13
ExecutionTime = 0.38 s  ClockTime = 7 s

forces forces write:
    sum of forces:
        pressure : (0.0874335 4.87042e-08 -1.36357e-27)
        viscous  : (0.0929087 1.67643e-10 -7.36311e-22)
        porous   : (0 0 0)
    sum of moments:
        pressure : (-9.25813e-21 -2.10709e-21 2.30658e-19)
        viscous  : (-8.52843e-22 -7.15933e-21 3.87301e-11)
        porous   : (0 0 0)

forceCoeffs forceCoeffs write:
    Cm    = 7.74602e-10
    Cd    = 3.60684
    Cl    = 9.77436e-07
    Cl(f) = 4.89493e-07
    Cl(r) = 4.87944e-07

Time = 0.04

Courant Number mean: 0.0517001 max: 0.410944
smoothSolver:  Solving for Ux, Initial residual = 0.00451597, Final residual = 5.59428e-09, No Iterations 3
smoothSolver:  Solving for Uy, Initial residual = 0.00331281, Final residual = 6.99978e-08, No Iterations 2
DICPCG:  Solving for p, Initial residual = 0.0486372, Final residual = 8.65669e-08, No Iterations 102
time step continuity errors : sum local = 3.58989e-12, global = 1.87884e-14, cumulative = 4.0593e-13
DICPCG:  Solving for p, Initial residual = 0.00289599, Final residual = 7.44465e-08, No Iterations 89
time step continuity errors : sum local = 2.9559e-12, global = 3.89711e-14, cumulative = 4.44901e-13
ExecutionTime = 0.39 s  ClockTime = 7 s

forces forces write:
    sum of forces:
        pressure : (0.0849733 -5.92081e-09 8.3013e-28)
        viscous  : (0.0907441 2.07334e-10 -7.71096e-22)
        porous   : (0 0 0)
    sum of moments:
        pressure : (-8.99338e-21 -2.05373e-21 7.40624e-20)
        viscous  : (-8.24856e-22 -6.99966e-21 4.50796e-11)
        porous   : (0 0 0)

forceCoeffs forceCoeffs write:
    Cm    = 9.01592e-10
    Cd    = 3.51435
    Cl    = -1.1427e-07
    Cl(f) = -5.62332e-08
    Cl(r) = -5.80364e-08

Time = 0.045

Courant Number mean: 0.0517024 max: 0.40463
smoothSolver:  Solving for Ux, Initial residual = 0.00426089, Final residual = 4.785e-09, No Iterations 3
smoothSolver:  Solving for Uy, Initial residual = 0.00319133, Final residual = 6.2059e-08, No Iterations 2
DICPCG:  Solving for p, Initial residual = 0.0422062, Final residual = 8.29786e-08, No Iterations 98
time step continuity errors : sum local = 3.19937e-12, global = -7.81861e-15, cumulative = 4.37083e-13
DICPCG:  Solving for p, Initial residual = 0.00244946, Final residual = 7.55262e-08, No Iterations 89
time step continuity errors : sum local = 2.8016e-12, global = 3.57003e-14, cumulative = 4.72783e-13
ExecutionTime = 0.41 s  ClockTime = 7 s

forces forces write:
    sum of forces:
        pressure : (0.0831529 2.38399e-09 -3.81069e-28)
        viscous  : (0.0886999 2.58326e-10 -8.07299e-22)
        porous   : (0 0 0)
    sum of moments:
        pressure : (-8.79036e-21 -2.01463e-21 3.25578e-19)
        viscous  : (-7.98964e-22 -6.8486e-21 4.79973e-11)
        porous   : (0 0 0)

forceCoeffs forceCoeffs write:
    Cm    = 9.59946e-10
    Cd    = 3.43706
    Cl    = 5.28463e-08
    Cl(f) = 2.73831e-08
    Cl(r) = 2.54632e-08

Time = 0.05

Courant Number mean: 0.0517042 max: 0.398417
smoothSolver:  Solving for Ux, Initial residual = 0.00404328, Final residual = 4.10392e-09, No Iterations 3
smoothSolver:  Solving for Uy, Initial residual = 0.00308996, Final residual = 5.60263e-08, No Iterations 2
DICPCG:  Solving for p, Initial residual = 0.0373421, Final residual = 9.64306e-08, No Iterations 101
time step continuity errors : sum local = 3.48504e-12, global = -5.17561e-14, cumulative = 4.21027e-13
DICPCG:  Solving for p, Initial residual = 0.0021234, Final residual = 8.79043e-08, No Iterations 88
time step continuity errors : sum local = 3.06803e-12, global = 3.19752e-14, cumulative = 4.53002e-13
ExecutionTime = 0.43 s  ClockTime = 7 s

forces forces write:
    sum of forces:
        pressure : (0.0816293 7.01318e-10 -5.70215e-28)
        viscous  : (0.0867601 2.92825e-10 -8.44841e-22)
        porous   : (0 0 0)
    sum of moments:
        pressure : (-8.61691e-21 -1.98052e-21 5.37654e-19)
        viscous  : (-7.75149e-22 -6.70488e-21 4.81344e-11)
        porous   : (0 0 0)

forceCoeffs forceCoeffs write:
    Cm    = 9.62687e-10
    Cd    = 3.36779
    Cl    = 1.98829e-08
    Cl(f) = 1.09041e-08
    Cl(r) = 8.97874e-09

Time = 0.055

Courant Number mean: 0.0517056 max: 0.392468
smoothSolver:  Solving for Ux, Initial residual = 0.0038561, Final residual = 3.5287e-09, No Iterations 3
smoothSolver:  Solving for Uy, Initial residual = 0.00300122, Final residual = 5.22048e-08, No Iterations 2
DICPCG:  Solving for p, Initial residual = 0.0334451, Final residual = 9.00806e-08, No Iterations 98
time step continuity errors : sum local = 3.06966e-12, global = 4.49165e-14, cumulative = 4.97919e-13
DICPCG:  Solving for p, Initial residual = 0.00186918, Final residual = 8.42241e-08, No Iterations 87
time step continuity errors : sum local = 2.77883e-12, global = 1.13419e-14, cumulative = 5.09261e-13
ExecutionTime = 0.44 s  ClockTime = 7 s

forces forces write:
    sum of forces:
        pressure : (0.0802443 -2.51463e-09 -8.58705e-28)
        viscous  : (0.0849124 3.13933e-10 -8.83632e-22)
        porous   : (0 0 0)
    sum of moments:
        pressure : (-8.45038e-21 -1.94806e-21 2.80897e-19)
        viscous  : (-7.53174e-22 -6.56766e-21 4.60851e-11)
        porous   : (0 0 0)

forceCoeffs forceCoeffs write:
    Cm    = 9.21703e-10
    Cd    = 3.30313
    Cl    = -4.4014e-08
    Cl(f) = -2.10853e-08
    Cl(r) = -2.29287e-08

Time = 0.06

Courant Number mean: 0.0517068 max: 0.386678
smoothSolver:  Solving for Ux, Initial residual = 0.00369942, Final residual = 3.04392e-09, No Iterations 3
smoothSolver:  Solving for Uy, Initial residual = 0.00292097, Final residual = 4.93687e-08, No Iterations 2
DICPCG:  Solving for p, Initial residual = 0.0302502, Final residual = 9.29013e-08, No Iterations 101
time step continuity errors : sum local = 2.99891e-12, global = 4.457e-14, cumulative = 5.53831e-13
DICPCG:  Solving for p, Initial residual = 0.0016459, Final residual = 7.65051e-08, No Iterations 88
time step continuity errors : sum local = 2.39697e-12, global = 4.28197e-14, cumulative = 5.9665e-13
ExecutionTime = 0.46 s  ClockTime = 7 s

forces forces write:
    sum of forces:
        pressure : (0.0789274 5.07079e-09 -6.09176e-29)
        viscous  : (0.0831476 3.36989e-10 -9.23644e-22)
        porous   : (0 0 0)
    sum of moments:
        pressure : (-8.28855e-21 -1.91679e-21 3.70431e-19)
        viscous  : (-7.32778e-22 -6.4362e-21 4.22796e-11)
        porous   : (0 0 0)

forceCoeffs forceCoeffs write:
    Cm    = 8.45592e-10
    Cd    = 3.2415
    Cl    = 1.08156e-07
    Cl(f) = 5.49234e-08
    Cl(r) = 5.32322e-08

Time = 0.065

Courant Number mean: 0.0517076 max: 0.381054
smoothSolver:  Solving for Ux, Initial residual = 0.00356097, Final residual = 2.63396e-09, No Iterations 3
smoothSolver:  Solving for Uy, Initial residual = 0.00284731, Final residual = 4.69989e-08, No Iterations 2
DICPCG:  Solving for p, Initial residual = 0.0279739, Final residual = 9.20864e-08, No Iterations 101
time step continuity errors : sum local = 2.82618e-12, global = 3.1509e-14, cumulative = 6.28159e-13
DICPCG:  Solving for p, Initial residual = 0.00152109, Final residual = 8.15564e-08, No Iterations 88
time step continuity errors : sum local = 2.43311e-12, global = 3.04756e-14, cumulative = 6.58635e-13
ExecutionTime = 0.48 s  ClockTime = 7 s

forces forces write:
    sum of forces:
        pressure : (0.077662 4.09732e-09 -5.52879e-28)
        viscous  : (0.0814579 3.48601e-10 -9.64654e-22)
        porous   : (0 0 0)
    sum of moments:
        pressure : (-8.131e-21 -1.88725e-21 1.77493e-19)
        viscous  : (-7.13722e-22 -6.31007e-21 3.72772e-11)
        porous   : (0 0 0)

forceCoeffs forceCoeffs write:
    Cm    = 7.45544e-10
    Cd    = 3.1824
    Cl    = 8.89185e-08
    Cl(f) = 4.52048e-08
    Cl(r) = 4.37137e-08

Time = 0.07

Courant Number mean: 0.0517083 max: 0.375569
smoothSolver:  Solving for Ux, Initial residual = 0.0034378, Final residual = 2.28785e-09, No Iterations 3
smoothSolver:  Solving for Uy, Initial residual = 0.00277754, Final residual = 4.48641e-08, No Iterations 2
DICPCG:  Solving for p, Initial residual = 0.0260412, Final residual = 8.60606e-08, No Iterations 101
time step continuity errors : sum local = 2.51827e-12, global = 2.78876e-14, cumulative = 6.86522e-13
DICPCG:  Solving for p, Initial residual = 0.00137068, Final residual = 8.91975e-08, No Iterations 87
time step continuity errors : sum local = 2.54114e-12, global = 1.01088e-15, cumulative = 6.87533e-13
ExecutionTime = 0.49 s  ClockTime = 7 s

forces forces write:
    sum of forces:
        pressure : (0.0764318 3.77587e-09 -5.14455e-28)
        viscous  : (0.0798372 3.48962e-10 -1.00659e-21)
        porous   : (0 0 0)
    sum of moments:
        pressure : (-7.97886e-21 -1.85937e-21 -1.43784e-19)
        viscous  : (-6.95811e-22 -6.18878e-21 3.12253e-11)
        porous   : (0 0 0)

forceCoeffs forceCoeffs write:
    Cm    = 6.24506e-10
    Cd    = 3.12538
    Cl    = 8.24966e-08
    Cl(f) = 4.18728e-08
    Cl(r) = 4.06238e-08

Time = 0.075

Courant Number mean: 0.0517087 max: 0.370241
smoothSolver:  Solving for Ux, Initial residual = 0.00332597, Final residual = 1.99474e-09, No Iterations 3
smoothSolver:  Solving for Uy, Initial residual = 0.00271208, Final residual = 4.3644e-08, No Iterations 2
DICPCG:  Solving for p, Initial residual = 0.0247577, Final residual = 7.92795e-08, No Iterations 101
time step continuity errors : sum local = 2.2167e-12, global = 2.28739e-14, cumulative = 7.10407e-13
DICPCG:  Solving for p, Initial residual = 0.00128637, Final residual = 9.84507e-08, No Iterations 86
time step continuity errors : sum local = 2.68239e-12, global = -3.06714e-14, cumulative = 6.79736e-13
ExecutionTime = 0.52 s  ClockTime = 7 s

forces forces write:
    sum of forces:
        pressure : (0.0752382 3.90325e-09 -1.5196e-28)
        viscous  : (0.0782801 3.3861e-10 -1.04928e-21)
        porous   : (0 0 0)
    sum of moments:
        pressure : (-7.83264e-21 -1.83328e-21 6.73603e-19)
        viscous  : (-6.78928e-22 -6.07201e-21 2.43624e-11)
        porous   : (0 0 0)

forceCoeffs forceCoeffs write:
    Cm    = 4.87249e-10
    Cd    = 3.07037
    Cl    = 8.48372e-08
    Cl(f) = 4.29058e-08
    Cl(r) = 4.19313e-08

Time = 0.08

Courant Number mean: 0.0517089 max: 0.365068
smoothSolver:  Solving for Ux, Initial residual = 0.00322234, Final residual = 1.74639e-09, No Iterations 3
smoothSolver:  Solving for Uy, Initial residual = 0.00265049, Final residual = 4.28767e-08, No Iterations 2
DICPCG:  Solving for p, Initial residual = 0.0234947, Final residual = 8.79912e-08, No Iterations 100
time step continuity errors : sum local = 2.35432e-12, global = 2.22607e-14, cumulative = 7.01997e-13
DICPCG:  Solving for p, Initial residual = 0.00120229, Final residual = 9.51063e-08, No Iterations 86
time step continuity errors : sum local = 2.48167e-12, global = -1.72012e-14, cumulative = 6.84795e-13
ExecutionTime = 0.54 s  ClockTime = 7 s

forces forces write:
    sum of forces:
        pressure : (0.0740878 1.8981e-09 -1.65119e-28)
        viscous  : (0.0767821 3.24034e-10 -1.09254e-21)
        porous   : (0 0 0)
    sum of moments:
        pressure : (-7.69459e-21 -1.80897e-21 3.08558e-19)
        viscous  : (-6.6298e-22 -5.95947e-21 1.67925e-11)
        porous   : (0 0 0)

forceCoeffs forceCoeffs write:
    Cm    = 3.35851e-10
    Cd    = 3.0174
    Cl    = 4.44427e-08
    Cl(f) = 2.25572e-08
    Cl(r) = 2.18855e-08

Time = 0.085

Courant Number mean: 0.0517091 max: 0.360045
smoothSolver:  Solving for Ux, Initial residual = 0.00312606, Final residual = 1.53585e-09, No Iterations 3
smoothSolver:  Solving for Uy, Initial residual = 0.00259204, Final residual = 4.25198e-08, No Iterations 2
DICPCG:  Solving for p, Initial residual = 0.0224941, Final residual = 7.7539e-08, No Iterations 100
time step continuity errors : sum local = 1.98806e-12, global = 7.59179e-15, cumulative = 6.92387e-13
DICPCG:  Solving for p, Initial residual = 0.0011378, Final residual = 9.29217e-08, No Iterations 86
time step continuity errors : sum local = 2.32526e-12, global = -2.50614e-15, cumulative = 6.89881e-13
ExecutionTime = 0.55 s  ClockTime = 7 s

forces forces write:
    sum of forces:
        pressure : (0.0729793 1.22207e-09 -1.3727e-28)
        viscous  : (0.0753394 3.02357e-10 -1.13626e-21)
        porous   : (0 0 0)
    sum of moments:
        pressure : (-7.56456e-21 -1.78622e-21 6.82126e-20)
        viscous  : (-6.4792e-22 -5.85089e-21 9.04204e-12)
        porous   : (0 0 0)

forceCoeffs forceCoeffs write:
    Cm    = 1.80841e-10
    Cd    = 2.96637
    Cl    = 3.04885e-08
    Cl(f) = 1.54251e-08
    Cl(r) = 1.50634e-08

Time = 0.09

Courant Number mean: 0.0517091 max: 0.358879
smoothSolver:  Solving for Ux, Initial residual = 0.00303673, Final residual = 1.3571e-09, No Iterations 3
smoothSolver:  Solving for Uy, Initial residual = 0.00253692, Final residual = 4.22606e-08, No Iterations 2
DICPCG:  Solving for p, Initial residual = 0.0213784, Final residual = 9.84175e-08, No Iterations 99
time step continuity errors : sum local = 2.42177e-12, global = -1.79625e-14, cumulative = 6.71918e-13
DICPCG:  Solving for p, Initial residual = 0.00107651, Final residual = 8.84134e-08, No Iterations 86
time step continuity errors : sum local = 2.12539e-12, global = 8.31827e-15, cumulative = 6.80237e-13
ExecutionTime = 0.57 s  ClockTime = 7 s

forces forces write:
    sum of forces:
        pressure : (0.0719102 1.06458e-09 -1.26141e-28)
        viscous  : (0.0739484 2.76919e-10 -1.18035e-21)
        porous   : (0 0 0)
    sum of moments:
        pressure : (-7.43926e-21 -1.76482e-21 2.11381e-19)
        viscous  : (-6.33626e-22 -5.74601e-21 1.2228e-12)
        porous   : (0 0 0)

forceCoeffs forceCoeffs write:
    Cm    = 2.4456e-11
    Cd    = 2.91717
    Cl    = 2.68301e-08
    Cl(f) = 1.34395e-08
    Cl(r) = 1.33906e-08

Time = 0.095

Courant Number mean: 0.0517089 max: 0.358738
smoothSolver:  Solving for Ux, Initial residual = 0.00295304, Final residual = 9.91173e-08, No Iterations 2
smoothSolver:  Solving for Uy, Initial residual = 0.00248547, Final residual = 4.21088e-08, No Iterations 2
DICPCG:  Solving for p, Initial residual = 0.0205131, Final residual = 9.48652e-08, No Iterations 99
time step continuity errors : sum local = 2.24392e-12, global = -2.81383e-14, cumulative = 6.52098e-13
DICPCG:  Solving for p, Initial residual = 0.00102462, Final residual = 8.59028e-08, No Iterations 86
time step continuity errors : sum local = 1.98658e-12, global = 1.32199e-14, cumulative = 6.65318e-13
ExecutionTime = 0.58 s  ClockTime = 7 s

forces forces write:
    sum of forces:
        pressure : (0.0708821 -3.46578e-09 -1.51769e-27)
        viscous  : (0.0726063 2.60599e-10 -1.22473e-21)
        porous   : (0 0 0)
    sum of moments:
        pressure : (-7.32016e-21 -1.74459e-21 1.87423e-20)
        viscous  : (-6.20045e-22 -5.64462e-21 2.05161e-11)
        porous   : (0 0 0)

forceCoeffs forceCoeffs write:
    Cm    = 4.10321e-10
    Cd    = 2.86977
    Cl    = -6.41035e-08
    Cl(f) = -3.16414e-08
    Cl(r) = -3.24621e-08

Time = 0.1

Courant Number mean: 0.0517087 max: 0.358566
smoothSolver:  Solving for Ux, Initial residual = 0.00287426, Final residual = 9.10386e-08, No Iterations 2
smoothSolver:  Solving for Uy, Initial residual = 0.00243733, Final residual = 4.19792e-08, No Iterations 2
DICPCG:  Solving for p, Initial residual = 0.0201825, Final residual = 9.11176e-08, No Iterations 99
time step continuity errors : sum local = 2.07397e-12, global = -3.08057e-14, cumulative = 6.34513e-13
DICPCG:  Solving for p, Initial residual = 0.00102368, Final residual = 8.54594e-08, No Iterations 86
time step continuity errors : sum local = 1.90261e-12, global = 1.24449e-14, cumulative = 6.46958e-13
ExecutionTime = 0.6 s  ClockTime = 7 s

forces forces write:
    sum of forces:
        pressure : (0.0699028 -4.50005e-09 -1.2575e-27)
        viscous  : (0.0713102 2.4483e-10 -1.26932e-21)
        porous   : (0 0 0)
    sum of moments:
        pressure : (-7.20745e-21 -1.72564e-21 1.51817e-19)
        viscous  : (-6.07075e-22 -5.54653e-21 3.66776e-11)
        porous   : (0 0 0)

forceCoeffs forceCoeffs write:
    Cm    = 7.33551e-10
    Cd    = 2.82426
    Cl    = -8.51043e-08
    Cl(f) = -4.18186e-08
    Cl(r) = -4.32857e-08

Time = 0.105

Courant Number mean: 0.0517085 max: 0.358362
smoothSolver:  Solving for Ux, Initial residual = 0.00280022, Final residual = 8.39062e-08, No Iterations 2
smoothSolver:  Solving for Uy, Initial residual = 0.00239229, Final residual = 4.19907e-08, No Iterations 2
DICPCG:  Solving for p, Initial residual = 0.0191816, Final residual = 9.3914e-08, No Iterations 99
time step continuity errors : sum local = 2.05975e-12, global = -3.57211e-14, cumulative = 6.11236e-13
DICPCG:  Solving for p, Initial residual = 0.00095173, Final residual = 8.30236e-08, No Iterations 86
time step continuity errors : sum local = 1.78283e-12, global = 8.64805e-15, cumulative = 6.19884e-13
ExecutionTime = 0.62 s  ClockTime = 7 s

forces forces write:
    sum of forces:
        pressure : (0.0689565 -4.95843e-09 -1.10071e-27)
        viscous  : (0.0700579 2.24036e-10 -1.31411e-21)
        porous   : (0 0 0)
    sum of moments:
        pressure : (-7.09933e-21 -1.70714e-21 -1.01379e-19)
        viscous  : (-5.94754e-22 -5.4516e-21 4.9905e-11)
        porous   : (0 0 0)

forceCoeffs forceCoeffs write:
    Cm    = 9.981e-10
    Cd    = 2.78029
    Cl    = -9.46878e-08
    Cl(f) = -4.63458e-08
    Cl(r) = -4.8342e-08

Time = 0.11

Courant Number mean: 0.0517081 max: 0.358127
smoothSolver:  Solving for Ux, Initial residual = 0.00273027, Final residual = 7.75897e-08, No Iterations 2
smoothSolver:  Solving for Uy, Initial residual = 0.00234963, Final residual = 4.189e-08, No Iterations 2
DICPCG:  Solving for p, Initial residual = 0.0191093, Final residual = 9.20995e-08, No Iterations 99
time step continuity errors : sum local = 1.94905e-12, global = -3.03955e-14, cumulative = 5.89489e-13
DICPCG:  Solving for p, Initial residual = 0.000960557, Final residual = 8.43952e-08, No Iterations 86
time step continuity errors : sum local = 1.74963e-12, global = 8.07935e-15, cumulative = 5.97568e-13
ExecutionTime = 0.63 s  ClockTime = 7 s

forces forces write:
    sum of forces:
        pressure : (0.0680593 -5.70971e-09 -9.22822e-28)
        viscous  : (0.068847 2.06137e-10 -1.35901e-21)
        porous   : (0 0 0)
    sum of moments:
        pressure : (-6.99688e-21 -1.6899e-21 3.66097e-19)
        viscous  : (-5.82985e-22 -5.35963e-21 6.06516e-11)
        porous   : (0 0 0)

forceCoeffs forceCoeffs write:
    Cm    = 1.21303e-09
    Cd    = 2.73813
    Cl    = -1.10071e-07
    Cl(f) = -5.38227e-08
    Cl(r) = -5.62487e-08

Time = 0.115

Courant Number mean: 0.0517077 max: 0.357861
smoothSolver:  Solving for Ux, Initial residual = 0.00266427, Final residual = 7.2007e-08, No Iterations 2
smoothSolver:  Solving for Uy, Initial residual = 0.00230905, Final residual = 4.18814e-08, No Iterations 2
DICPCG:  Solving for p, Initial residual = 0.0182016, Final residual = 9.05377e-08, No Iterations 99
time step continuity errors : sum local = 1.8517e-12, global = -2.79009e-14, cumulative = 5.69667e-13
DICPCG:  Solving for p, Initial residual = 0.000896496, Final residual = 8.10426e-08, No Iterations 86
time step continuity errors : sum local = 1.62566e-12, global = 7.90412e-15, cumulative = 5.77572e-13
ExecutionTime = 0.65 s  ClockTime = 7 s

forces forces write:
    sum of forces:
        pressure : (0.067197 -5.90496e-09 -7.91979e-28)
        viscous  : (0.0676757 1.85199e-10 -1.40399e-21)
        porous   : (0 0 0)
    sum of moments:
        pressure : (-6.89875e-21 -1.67306e-21 4.66424e-19)
        viscous  : (-5.71782e-22 -5.27053e-21 6.91681e-11)
        porous   : (0 0 0)

forceCoeffs forceCoeffs write:
    Cm    = 1.38336e-09
    Cd    = 2.69745
    Cl    = -1.14395e-07
    Cl(f) = -5.58143e-08
    Cl(r) = -5.8581e-08

Time = 0.12

Courant Number mean: 0.0517072 max: 0.357566
smoothSolver:  Solving for Ux, Initial residual = 0.00260185, Final residual = 6.7053e-08, No Iterations 2
smoothSolver:  Solving for Uy, Initial residual = 0.00227017, Final residual = 4.18176e-08, No Iterations 2
DICPCG:  Solving for p, Initial residual = 0.0181231, Final residual = 8.72983e-08, No Iterations 99
time step continuity errors : sum local = 1.7269e-12, global = -2.1112e-14, cumulative = 5.5646e-13
DICPCG:  Solving for p, Initial residual = 0.000914595, Final residual = 7.93857e-08, No Iterations 86
time step continuity errors : sum local = 1.53983e-12, global = 8.23384e-15, cumulative = 5.64693e-13
ExecutionTime = 0.67 s  ClockTime = 7 s

forces forces write:
    sum of forces:
        pressure : (0.0663863 -6.59334e-09 -6.74965e-28)
        viscous  : (0.066542 1.6498e-10 -1.44895e-21)
        porous   : (0 0 0)
    sum of moments:
        pressure : (-6.80637e-21 -1.65709e-21 4.42886e-19)
        viscous  : (-5.61071e-22 -5.18419e-21 7.57607e-11)
        porous   : (0 0 0)

forceCoeffs forceCoeffs write:
    Cm    = 1.51521e-09
    Cd    = 2.65857
    Cl    = -1.28567e-07
    Cl(f) = -6.27683e-08
    Cl(r) = -6.57988e-08

Time = 0.125

Courant Number mean: 0.0517067 max: 0.357244
smoothSolver:  Solving for Ux, Initial residual = 0.00254256, Final residual = 6.26666e-08, No Iterations 2
smoothSolver:  Solving for Uy, Initial residual = 0.00223317, Final residual = 4.18461e-08, No Iterations 2
DICPCG:  Solving for p, Initial residual = 0.0176276, Final residual = 8.25198e-08, No Iterations 99
time step continuity errors : sum local = 1.57879e-12, global = -1.74036e-14, cumulative = 5.4729e-13
DICPCG:  Solving for p, Initial residual = 0.000894345, Final residual = 8.01496e-08, No Iterations 86
time step continuity errors : sum local = 1.50406e-12, global = 7.57745e-15, cumulative = 5.54867e-13
ExecutionTime = 0.69 s  ClockTime = 7 s

forces forces write:
    sum of forces:
        pressure : (0.0656135 -6.75964e-09 -5.72915e-28)
        viscous  : (0.0654442 1.40832e-10 -1.49389e-21)
        porous   : (0 0 0)
    sum of moments:
        pressure : (-6.71921e-21 -1.64167e-21 7.2461e-21)
        viscous  : (-5.50825e-22 -5.10051e-21 8.05833e-11)
        porous   : (0 0 0)

forceCoeffs forceCoeffs write:
    Cm    = 1.61167e-09
    Cd    = 2.62115
    Cl    = -1.32376e-07
    Cl(f) = -6.45764e-08
    Cl(r) = -6.77997e-08

Time = 0.13

Courant Number mean: 0.0517062 max: 0.356895
smoothSolver:  Solving for Ux, Initial residual = 0.00248618, Final residual = 5.87696e-08, No Iterations 2
smoothSolver:  Solving for Uy, Initial residual = 0.00219789, Final residual = 4.18387e-08, No Iterations 2
DICPCG:  Solving for p, Initial residual = 0.0176516, Final residual = 9.86e-08, No Iterations 98
time step continuity errors : sum local = 1.82468e-12, global = -1.85954e-14, cumulative = 5.36272e-13
DICPCG:  Solving for p, Initial residual = 0.000899038, Final residual = 8.16545e-08, No Iterations 86
time step continuity errors : sum local = 1.48192e-12, global = 2.71035e-15, cumulative = 5.38982e-13
ExecutionTime = 0.7 s  ClockTime = 7 s

forces forces write:
    sum of forces:
        pressure : (0.0648739 -7.02209e-09 -5.29313e-28)
        viscous  : (0.0643807 1.20806e-10 -1.53882e-21)
        porous   : (0 0 0)
    sum of moments:
        pressure : (-6.63506e-21 -1.62703e-21 -8.69466e-20)
        viscous  : (-5.40985e-22 -5.01934e-21 8.39263e-11)
        porous   : (0 0 0)

forceCoeffs forceCoeffs write:
    Cm    = 1.67853e-09
    Cd    = 2.58509
    Cl    = -1.38026e-07
    Cl(f) = -6.73343e-08
    Cl(r) = -7.06914e-08

Time = 0.135

Courant Number mean: 0.0517056 max: 0.356514
smoothSolver:  Solving for Ux, Initial residual = 0.0024325, Final residual = 5.5319e-08, No Iterations 2
smoothSolver:  Solving for Uy, Initial residual = 0.00216377, Final residual = 4.17171e-08, No Iterations 2
DICPCG:  Solving for p, Initial residual = 0.0169258, Final residual = 9.49792e-08, No Iterations 98
time step continuity errors : sum local = 1.70089e-12, global = -1.4906e-14, cumulative = 5.24076e-13
DICPCG:  Solving for p, Initial residual = 0.000854687, Final residual = 7.87801e-08, No Iterations 86
time step continuity errors : sum local = 1.38454e-12, global = 5.27936e-15, cumulative = 5.29356e-13
ExecutionTime = 0.72 s  ClockTime = 7 s

forces forces write:
    sum of forces:
        pressure : (0.0641683 -7.538e-09 -3.91057e-28)
        viscous  : (0.0633501 9.76826e-11 -1.58367e-21)
        porous   : (0 0 0)
    sum of moments:
        pressure : (-6.55414e-21 -1.61291e-21 -2.66799e-19)
        viscous  : (-5.31566e-22 -4.94058e-21 8.60255e-11)
        porous   : (0 0 0)

forceCoeffs forceCoeffs write:
    Cm    = 1.72051e-09
    Cd    = 2.55037
    Cl    = -1.48806e-07
    Cl(f) = -7.26827e-08
    Cl(r) = -7.61237e-08

Time = 0.14

Courant Number mean: 0.051705 max: 0.356108
smoothSolver:  Solving for Ux, Initial residual = 0.00238127, Final residual = 5.22342e-08, No Iterations 2
smoothSolver:  Solving for Uy, Initial residual = 0.00213141, Final residual = 4.16695e-08, No Iterations 2
DICPCG:  Solving for p, Initial residual = 0.0165451, Final residual = 9.25557e-08, No Iterations 98
time step continuity errors : sum local = 1.60571e-12, global = -1.22788e-14, cumulative = 5.17077e-13
DICPCG:  Solving for p, Initial residual = 0.000848617, Final residual = 7.71047e-08, No Iterations 86
time step continuity errors : sum local = 1.31341e-12, global = 4.37979e-15, cumulative = 5.21456e-13
ExecutionTime = 0.74 s  ClockTime = 7 s

forces forces write:
    sum of forces:
        pressure : (0.0634981 -7.91546e-09 -3.33049e-28)
        viscous  : (0.0623512 7.79852e-11 -1.62841e-21)
        porous   : (0 0 0)
    sum of moments:
        pressure : (-6.47756e-21 -1.59947e-21 4.93877e-19)
        viscous  : (-5.22544e-22 -4.86414e-21 8.70836e-11)
        porous   : (0 0 0)

forceCoeffs forceCoeffs write:
    Cm    = 1.74167e-09
    Cd    = 2.51699
    Cl    = -1.56749e-07
    Cl(f) = -7.66331e-08
    Cl(r) = -8.01164e-08

Time = 0.145

Courant Number mean: 0.0517044 max: 0.355681
smoothSolver:  Solving for Ux, Initial residual = 0.00233227, Final residual = 4.94873e-08, No Iterations 2
smoothSolver:  Solving for Uy, Initial residual = 0.00210034, Final residual = 4.15983e-08, No Iterations 2
DICPCG:  Solving for p, Initial residual = 0.016182, Final residual = 9.08814e-08, No Iterations 98
time step continuity errors : sum local = 1.52865e-12, global = -1.21872e-14, cumulative = 5.09269e-13
DICPCG:  Solving for p, Initial residual = 0.000835718, Final residual = 7.84627e-08, No Iterations 86
time step continuity errors : sum local = 1.29635e-12, global = 1.56843e-15, cumulative = 5.10838e-13
ExecutionTime = 0.75 s  ClockTime = 7 s

forces forces write:
    sum of forces:
        pressure : (0.0628588 -7.89164e-09 -2.50036e-28)
        viscous  : (0.0613825 5.79305e-11 -1.67305e-21)
        porous   : (0 0 0)
    sum of moments:
        pressure : (-6.40404e-21 -1.58659e-21 4.68505e-19)
        viscous  : (-5.13894e-22 -4.78993e-21 8.72343e-11)
        porous   : (0 0 0)

forceCoeffs forceCoeffs write:
    Cm    = 1.74469e-09
    Cd    = 2.48483
    Cl    = -1.56674e-07
    Cl(f) = -7.65924e-08
    Cl(r) = -8.00818e-08

Time = 0.15

Courant Number mean: 0.0517037 max: 0.355251
smoothSolver:  Solving for Ux, Initial residual = 0.00228558, Final residual = 4.71555e-08, No Iterations 2
smoothSolver:  Solving for Uy, Initial residual = 0.00207032, Final residual = 4.14757e-08, No Iterations 2
DICPCG:  Solving for p, Initial residual = 0.0159061, Final residual = 8.9291e-08, No Iterations 98
time step continuity errors : sum local = 1.45713e-12, global = -1.11155e-14, cumulative = 4.99722e-13
DICPCG:  Solving for p, Initial residual = 0.000835387, Final residual = 7.77617e-08, No Iterations 86
time step continuity errors : sum local = 1.24689e-12, global = -9.05236e-16, cumulative = 4.98817e-13
ExecutionTime = 0.77 s  ClockTime = 7 s

forces forces write:
    sum of forces:
        pressure : (0.0622506 -8.25903e-09 -1.64828e-28)
        viscous  : (0.060443 3.99978e-11 -1.71754e-21)
        porous   : (0 0 0)
    sum of moments:
        pressure : (-6.33417e-21 -1.57432e-21 3.10772e-19)
        viscous  : (-5.05604e-22 -4.71788e-21 8.66461e-11)
        porous   : (0 0 0)

forceCoeffs forceCoeffs write:
    Cm    = 1.73292e-09
    Cd    = 2.45387
    Cl    = -1.64381e-07
    Cl(f) = -8.04574e-08
    Cl(r) = -8.39232e-08

Time = 0.155

Courant Number mean: 0.0517031 max: 0.354827
smoothSolver:  Solving for Ux, Initial residual = 0.00224101, Final residual = 4.54435e-08, No Iterations 2
smoothSolver:  Solving for Uy, Initial residual = 0.00204136, Final residual = 4.13126e-08, No Iterations 2
DICPCG:  Solving for p, Initial residual = 0.0158145, Final residual = 8.45208e-08, No Iterations 98
time step continuity errors : sum local = 1.33865e-12, global = -7.51844e-15, cumulative = 4.91298e-13
DICPCG:  Solving for p, Initial residual = 0.000867918, Final residual = 9.74147e-08, No Iterations 85
time step continuity errors : sum local = 1.51619e-12, global = -1.21474e-14, cumulative = 4.79151e-13
ExecutionTime = 0.79 s  ClockTime = 7 s

forces forces write:
    sum of forces:
        pressure : (0.0616791 -7.59386e-09 1.3155e-28)
        viscous  : (0.0595314 1.98629e-11 -1.76181e-21)
        porous   : (0 0 0)
    sum of moments:
        pressure : (-6.27096e-21 -1.56269e-21 1.78876e-19)
        viscous  : (-4.97731e-22 -4.64794e-21 8.54481e-11)
        porous   : (0 0 0)

forceCoeffs forceCoeffs write:
    Cm    = 1.70896e-09
    Cd    = 2.42421
    Cl    = -1.5148e-07
    Cl(f) = -7.4031e-08
    Cl(r) = -7.74489e-08

Time = 0.16

Courant Number mean: 0.0517024 max: 0.354386
smoothSolver:  Solving for Ux, Initial residual = 0.00219847, Final residual = 4.43766e-08, No Iterations 2
smoothSolver:  Solving for Uy, Initial residual = 0.0020135, Final residual = 4.11786e-08, No Iterations 2
DICPCG:  Solving for p, Initial residual = 0.0156562, Final residual = 8.4233e-08, No Iterations 98
time step continuity errors : sum local = 1.29551e-12, global = -6.51966e-15, cumulative = 4.72631e-13
DICPCG:  Solving for p, Initial residual = 0.000853427, Final residual = 9.52773e-08, No Iterations 85
time step continuity errors : sum local = 1.44076e-12, global = -7.78067e-15, cumulative = 4.64851e-13
ExecutionTime = 0.8 s  ClockTime = 7 s

forces forces write:
    sum of forces:
        pressure : (0.0611344 -8.87676e-09 -7.61056e-29)
        viscous  : (0.0586466 9.78714e-13 -1.80583e-21)
        porous   : (0 0 0)
    sum of moments:
        pressure : (-6.20493e-21 -1.551e-21 4.49133e-19)
        viscous  : (-4.90025e-22 -4.58e-21 8.36491e-11)
        porous   : (0 0 0)

forceCoeffs forceCoeffs write:
    Cm    = 1.67298e-09
    Cd    = 2.39562
    Cl    = -1.77516e-07
    Cl(f) = -8.70849e-08
    Cl(r) = -9.04308e-08

Time = 0.165

Courant Number mean: 0.0517017 max: 0.35393
smoothSolver:  Solving for Ux, Initial residual = 0.00215786, Final residual = 4.35383e-08, No Iterations 2
smoothSolver:  Solving for Uy, Initial residual = 0.00198671, Final residual = 4.0966e-08, No Iterations 2
DICPCG:  Solving for p, Initial residual = 0.0156111, Final residual = 8.02474e-08, No Iterations 98
time step continuity errors : sum local = 1.19903e-12, global = -8.62368e-15, cumulative = 4.56227e-13
DICPCG:  Solving for p, Initial residual = 0.00084182, Final residual = 9.81579e-08, No Iterations 85
time step continuity errors : sum local = 1.44201e-12, global = -1.18096e-14, cumulative = 4.44417e-13
ExecutionTime = 0.82 s  ClockTime = 7 s

forces forces write:
    sum of forces:
        pressure : (0.0606186 -8.80696e-09 1.04052e-28)
        viscous  : (0.0577877 -1.76631e-11 -1.84962e-21)
        porous   : (0 0 0)
    sum of moments:
        pressure : (-6.14638e-21 -1.54015e-21 2.65743e-19)
        viscous  : (-4.8258e-22 -4.514e-21 8.14753e-11)
        porous   : (0 0 0)

forceCoeffs forceCoeffs write:
    Cm    = 1.62951e-09
    Cd    = 2.36813
    Cl    = -1.76493e-07
    Cl(f) = -8.66168e-08
    Cl(r) = -8.98758e-08

Time = 0.17

Courant Number mean: 0.051701 max: 0.353453
smoothSolver:  Solving for Ux, Initial residual = 0.00211914, Final residual = 4.28299e-08, No Iterations 2
smoothSolver:  Solving for Uy, Initial residual = 0.00196044, Final residual = 4.06869e-08, No Iterations 2
DICPCG:  Solving for p, Initial residual = 0.0150722, Final residual = 8.12577e-08, No Iterations 98
time step continuity errors : sum local = 1.18073e-12, global = -1.17353e-14, cumulative = 4.32682e-13
DICPCG:  Solving for p, Initial residual = 0.000816819, Final residual = 9.98296e-08, No Iterations 85
time step continuity errors : sum local = 1.42776e-12, global = -1.51042e-14, cumulative = 4.17578e-13
ExecutionTime = 0.83 s  ClockTime = 7 s

forces forces write:
    sum of forces:
        pressure : (0.0601185 -9.04334e-09 1.07417e-28)
        viscous  : (0.0569537 -3.25615e-11 -1.8932e-21)
        porous   : (0 0 0)
    sum of moments:
        pressure : (-6.08641e-21 -1.52981e-21 8.60268e-22)
        viscous  : (-4.75355e-22 -4.44982e-21 7.90291e-11)
        porous   : (0 0 0)

forceCoeffs forceCoeffs write:
    Cm    = 1.58058e-09
    Cd    = 2.34145
    Cl    = -1.81518e-07
    Cl(f) = -8.91785e-08
    Cl(r) = -9.23396e-08

Time = 0.175

Courant Number mean: 0.0517003 max: 0.352956
smoothSolver:  Solving for Ux, Initial residual = 0.00208192, Final residual = 4.21899e-08, No Iterations 2
smoothSolver:  Solving for Uy, Initial residual = 0.0019352, Final residual = 4.03014e-08, No Iterations 2
DICPCG:  Solving for p, Initial residual = 0.0149071, Final residual = 7.94694e-08, No Iterations 98
time step continuity errors : sum local = 1.12548e-12, global = -1.00722e-14, cumulative = 4.07506e-13
DICPCG:  Solving for p, Initial residual = 0.00080453, Final residual = 9.78958e-08, No Iterations 85
time step continuity errors : sum local = 1.36632e-12, global = -8.69436e-15, cumulative = 3.98811e-13
ExecutionTime = 0.85 s  ClockTime = 7 s

forces forces write:
    sum of forces:
        pressure : (0.0596488 -9.78832e-09 1.48321e-28)
        viscous  : (0.0561438 -4.77284e-11 -1.93647e-21)
        porous   : (0 0 0)
    sum of moments:
        pressure : (-6.03218e-21 -1.52004e-21 2.20665e-19)
        viscous  : (-4.68432e-22 -4.38745e-21 7.6427e-11)
        porous   : (0 0 0)

forceCoeffs forceCoeffs write:
    Cm    = 1.52854e-09
    Cd    = 2.31585
    Cl    = -1.96721e-07
    Cl(f) = -9.68319e-08
    Cl(r) = -9.9889e-08

Time = 0.18

Courant Number mean: 0.0516996 max: 0.352444
smoothSolver:  Solving for Ux, Initial residual = 0.00204621, Final residual = 4.16235e-08, No Iterations 2
smoothSolver:  Solving for Uy, Initial residual = 0.00191109, Final residual = 3.99803e-08, No Iterations 2
DICPCG:  Solving for p, Initial residual = 0.0143507, Final residual = 7.77621e-08, No Iterations 98
time step continuity errors : sum local = 1.07718e-12, global = -9.8116e-15, cumulative = 3.89e-13
DICPCG:  Solving for p, Initial residual = 0.000777153, Final residual = 9.80944e-08, No Iterations 85
time step continuity errors : sum local = 1.34234e-12, global = -6.53156e-15, cumulative = 3.82468e-13
ExecutionTime = 0.87 s  ClockTime = 7 s

forces forces write:
    sum of forces:
        pressure : (0.0591998 -9.38498e-09 2.30287e-28)
        viscous  : (0.055357 -6.59775e-11 -1.97945e-21)
        porous   : (0 0 0)
    sum of moments:
        pressure : (-5.97886e-21 -1.5107e-21 -1.13304e-19)
        viscous  : (-4.61758e-22 -4.32681e-21 7.37151e-11)
        porous   : (0 0 0)

forceCoeffs forceCoeffs write:
    Cm    = 1.4743e-09
    Cd    = 2.29114
    Cl    = -1.89019e-07
    Cl(f) = -9.30352e-08
    Cl(r) = -9.59838e-08

Time = 0.185

Courant Number mean: 0.0516989 max: 0.351919
smoothSolver:  Solving for Ux, Initial residual = 0.00201185, Final residual = 4.11128e-08, No Iterations 2
smoothSolver:  Solving for Uy, Initial residual = 0.00188789, Final residual = 3.96469e-08, No Iterations 2
DICPCG:  Solving for p, Initial residual = 0.0144862, Final residual = 7.40945e-08, No Iterations 98
time step continuity errors : sum local = 1.00693e-12, global = -4.43327e-15, cumulative = 3.78035e-13
DICPCG:  Solving for p, Initial residual = 0.000834411, Final residual = 9.90417e-08, No Iterations 85
time step continuity errors : sum local = 1.33069e-12, global = 7.75926e-16, cumulative = 3.78811e-13
ExecutionTime = 0.88 s  ClockTime = 7 s

forces forces write:
    sum of forces:
        pressure : (0.0587835 -1.02003e-08 2.45048e-28)
        viscous  : (0.0545925 -7.3805e-11 -2.02204e-21)
        porous   : (0 0 0)
    sum of moments:
        pressure : (-5.92981e-21 -1.50159e-21 1.62551e-19)
        viscous  : (-4.55331e-22 -4.26791e-21 7.09708e-11)
        porous   : (0 0 0)

forceCoeffs forceCoeffs write:
    Cm    = 1.41942e-09
    Cd    = 2.26752
    Cl    = -2.05483e-07
    Cl(f) = -1.01322e-07
    Cl(r) = -1.04161e-07

Time = 0.19

Courant Number mean: 0.0516982 max: 0.351382
smoothSolver:  Solving for Ux, Initial residual = 0.00197882, Final residual = 4.06603e-08, No Iterations 2
smoothSolver:  Solving for Uy, Initial residual = 0.00186548, Final residual = 3.93842e-08, No Iterations 2
DICPCG:  Solving for p, Initial residual = 0.0137915, Final residual = 9.98582e-08, No Iterations 97
time step continuity errors : sum local = 1.33436e-12, global = -5.13634e-15, cumulative = 3.73675e-13
DICPCG:  Solving for p, Initial residual = 0.00076338, Final residual = 7.65294e-08, No Iterations 86
time step continuity errors : sum local = 1.01247e-12, global = -5.05617e-15, cumulative = 3.68618e-13
ExecutionTime = 0.9 s  ClockTime = 7 s

forces forces write:
    sum of forces:
        pressure : (0.0583708 -1.05112e-08 2.81862e-28)
        viscous  : (0.0538496 -8.95756e-11 -2.0644e-21)
        porous   : (0 0 0)
    sum of moments:
        pressure : (-5.88095e-21 -1.49334e-21 3.99244e-19)
        viscous  : (-4.49124e-22 -4.21055e-21 6.82212e-11)
        porous   : (0 0 0)

forceCoeffs forceCoeffs write:
    Cm    = 1.36442e-09
    Cd    = 2.24441
    Cl    = -2.12016e-07
    Cl(f) = -1.04644e-07
    Cl(r) = -1.07373e-07

Time = 0.195

Courant Number mean: 0.0516975 max: 0.350834
smoothSolver:  Solving for Ux, Initial residual = 0.00194705, Final residual = 4.02051e-08, No Iterations 2
smoothSolver:  Solving for Uy, Initial residual = 0.00184363, Final residual = 3.89653e-08, No Iterations 2
DICPCG:  Solving for p, Initial residual = 0.0136386, Final residual = 9.61455e-08, No Iterations 97
time step continuity errors : sum local = 1.26495e-12, global = 5.76116e-15, cumulative = 3.7438e-13
DICPCG:  Solving for p, Initial residual = 0.000797284, Final residual = 7.48939e-08, No Iterations 86
time step continuity errors : sum local = 9.75757e-13, global = 4.99574e-16, cumulative = 3.74879e-13
ExecutionTime = 0.91 s  ClockTime = 7 s

forces forces write:
    sum of forces:
        pressure : (0.0579897 -1.05923e-08 3.49807e-28)
        viscous  : (0.0531275 -9.59784e-11 -2.10636e-21)
        porous   : (0 0 0)
    sum of moments:
        pressure : (-5.83527e-21 -1.48516e-21 2.02772e-19)
        viscous  : (-4.43184e-22 -4.15481e-21 6.56199e-11)
        porous   : (0 0 0)

forceCoeffs forceCoeffs write:
    Cm    = 1.3124e-09
    Cd    = 2.22235
    Cl    = -2.13766e-07
    Cl(f) = -1.0557e-07
    Cl(r) = -1.08195e-07

Time = 0.2

Courant Number mean: 0.0516968 max: 0.350277
smoothSolver:  Solving for Ux, Initial residual = 0.00191651, Final residual = 3.98004e-08, No Iterations 2
smoothSolver:  Solving for Uy, Initial residual = 0.00182239, Final residual = 3.86313e-08, No Iterations 2
DICPCG:  Solving for p, Initial residual = 0.0132049, Final residual = 9.57725e-08, No Iterations 97
time step continuity errors : sum local = 1.24149e-12, global = 1.42169e-14, cumulative = 3.89096e-13
DICPCG:  Solving for p, Initial residual = 0.000761998, Final residual = 7.44451e-08, No Iterations 86
time step continuity errors : sum local = 9.56121e-13, global = 3.32658e-15, cumulative = 3.92423e-13
ExecutionTime = 0.93 s  ClockTime = 7 s

forces forces write:
    sum of forces:
        pressure : (0.057629 -9.90202e-09 4.3665e-28)
        viscous  : (0.0524255 -1.1076e-10 -2.14795e-21)
        porous   : (0 0 0)
    sum of moments:
        pressure : (-5.79208e-21 -1.47731e-21 -1.27015e-19)
        viscous  : (-4.37387e-22 -4.10054e-21 6.30869e-11)
        porous   : (0 0 0)

forceCoeffs forceCoeffs write:
    Cm    = 1.26174e-09
    Cd    = 2.20109
    Cl    = -2.00256e-07
    Cl(f) = -9.8866e-08
    Cl(r) = -1.01389e-07

Time = 0.205

Courant Number mean: 0.0516961 max: 0.34971
smoothSolver:  Solving for Ux, Initial residual = 0.00188718, Final residual = 3.94125e-08, No Iterations 2
smoothSolver:  Solving for Uy, Initial residual = 0.00180199, Final residual = 3.82652e-08, No Iterations 2
DICPCG:  Solving for p, Initial residual = 0.0128668, Final residual = 9.4717e-08, No Iterations 97
time step continuity errors : sum local = 1.21062e-12, global = 1.9472e-14, cumulative = 4.11895e-13
DICPCG:  Solving for p, Initial residual = 0.000742505, Final residual = 7.28588e-08, No Iterations 86
time step continuity errors : sum local = 9.23006e-13, global = 5.19125e-15, cumulative = 4.17086e-13
ExecutionTime = 0.95 s  ClockTime = 7 s

forces forces write:
    sum of forces:
        pressure : (0.0572888 -1.02285e-08 4.95987e-28)
        viscous  : (0.0517429 -1.19358e-10 -2.18914e-21)
        porous   : (0 0 0)
    sum of moments:
        pressure : (-5.75125e-21 -1.46988e-21 3.22878e-19)
        viscous  : (-4.31759e-22 -4.04773e-21 6.06513e-11)
        porous   : (0 0 0)

forceCoeffs forceCoeffs write:
    Cm    = 1.21303e-09
    Cd    = 2.18063
    Cl    = -2.06958e-07
    Cl(f) = -1.02266e-07
    Cl(r) = -1.04692e-07

Time = 0.21

Courant Number mean: 0.0516954 max: 0.349136
smoothSolver:  Solving for Ux, Initial residual = 0.00185896, Final residual = 3.9051e-08, No Iterations 2
smoothSolver:  Solving for Uy, Initial residual = 0.0017822, Final residual = 3.79266e-08, No Iterations 2
DICPCG:  Solving for p, Initial residual = 0.0124906, Final residual = 9.66959e-08, No Iterations 97
time step continuity errors : sum local = 1.21982e-12, global = 2.06394e-14, cumulative = 4.37725e-13
DICPCG:  Solving for p, Initial residual = 0.000713637, Final residual = 7.76677e-08, No Iterations 86
time step continuity errors : sum local = 9.71708e-13, global = 1.71286e-15, cumulative = 4.39438e-13
ExecutionTime = 0.96 s  ClockTime = 7 s

forces forces write:
    sum of forces:
        pressure : (0.0569589 -1.0212e-08 5.84978e-28)
        viscous  : (0.0510791 -1.27555e-10 -2.22997e-21)
        porous   : (0 0 0)
    sum of moments:
        pressure : (-5.71149e-21 -1.46298e-21 1.26287e-19)
        viscous  : (-4.26289e-22 -3.9963e-21 5.83418e-11)
        porous   : (0 0 0)

forceCoeffs forceCoeffs write:
    Cm    = 1.16684e-09
    Cd    = 2.16076
    Cl    = -2.06791e-07
    Cl(f) = -1.02229e-07
    Cl(r) = -1.04562e-07

Time = 0.215

Courant Number mean: 0.0516947 max: 0.348552
smoothSolver:  Solving for Ux, Initial residual = 0.00183167, Final residual = 3.86939e-08, No Iterations 2
smoothSolver:  Solving for Uy, Initial residual = 0.00176322, Final residual = 3.74972e-08, No Iterations 2
DICPCG:  Solving for p, Initial residual = 0.0126164, Final residual = 9.8473e-08, No Iterations 97
time step continuity errors : sum local = 1.22687e-12, global = 2.28395e-14, cumulative = 4.62278e-13
DICPCG:  Solving for p, Initial residual = 0.000755856, Final residual = 7.93141e-08, No Iterations 86
time step continuity errors : sum local = 9.80266e-13, global = 4.01779e-15, cumulative = 4.66295e-13
ExecutionTime = 0.98 s  ClockTime = 7 s

forces forces write:
    sum of forces:
        pressure : (0.0566528 -1.00507e-08 5.81713e-28)
        viscous  : (0.0504333 -1.37804e-10 -2.27036e-21)
        porous   : (0 0 0)
    sum of moments:
        pressure : (-5.67301e-21 -1.456e-21 1.51407e-19)
        viscous  : (-4.20911e-22 -3.94626e-21 5.6189e-11)
        porous   : (0 0 0)

forceCoeffs forceCoeffs write:
    Cm    = 1.12378e-09
    Cd    = 2.14172
    Cl    = -2.0377e-07
    Cl(f) = -1.00761e-07
    Cl(r) = -1.03009e-07

Time = 0.22

Courant Number mean: 0.051694 max: 0.347986
smoothSolver:  Solving for Ux, Initial residual = 0.00180541, Final residual = 3.83721e-08, No Iterations 2
smoothSolver:  Solving for Uy, Initial residual = 0.00174482, Final residual = 3.70944e-08, No Iterations 2
DICPCG:  Solving for p, Initial residual = 0.0117743, Final residual = 9.66193e-08, No Iterations 97
time step continuity errors : sum local = 1.1898e-12, global = 2.28047e-14, cumulative = 4.891e-13
DICPCG:  Solving for p, Initial residual = 0.000689117, Final residual = 7.86774e-08, No Iterations 86
time step continuity errors : sum local = 9.61702e-13, global = 5.12563e-15, cumulative = 4.94226e-13
ExecutionTime = 0.99 s  ClockTime = 7 s

forces forces write:
    sum of forces:
        pressure : (0.0563555 -1.08137e-08 6.418e-28)
        viscous  : (0.0498051 -1.40612e-10 -2.31036e-21)
        porous   : (0 0 0)
    sum of moments:
        pressure : (-5.6375e-21 -1.44995e-21 -3.25684e-19)
        viscous  : (-4.1575e-22 -3.89752e-21 5.42212e-11)
        porous   : (0 0 0)

forceCoeffs forceCoeffs write:
    Cm    = 1.08442e-09
    Cd    = 2.12321
    Cl    = -2.19087e-07
    Cl(f) = -1.08459e-07
    Cl(r) = -1.10628e-07

Time = 0.225

Courant Number mean: 0.0516933 max: 0.347429
smoothSolver:  Solving for Ux, Initial residual = 0.00178013, Final residual = 3.80576e-08, No Iterations 2
smoothSolver:  Solving for Uy, Initial residual = 0.00172726, Final residual = 3.66915e-08, No Iterations 2
DICPCG:  Solving for p, Initial residual = 0.0115071, Final residual = 9.31349e-08, No Iterations 97
time step continuity errors : sum local = 1.13544e-12, global = 2.29645e-14, cumulative = 5.1719e-13
DICPCG:  Solving for p, Initial residual = 0.000696363, Final residual = 7.57164e-08, No Iterations 86
time step continuity errors : sum local = 9.17301e-13, global = 6.72408e-15, cumulative = 5.23914e-13
ExecutionTime = 1.01 s  ClockTime = 7 s

forces forces write:
    sum of forces:
        pressure : (0.0560785 -1.03014e-08 6.61558e-28)
        viscous  : (0.0491938 -1.47144e-10 -2.34992e-21)
        porous   : (0 0 0)
    sum of moments:
        pressure : (-5.60302e-21 -1.44387e-21 6.38451e-20)
        viscous  : (-4.10759e-22 -3.85007e-21 5.24667e-11)
        porous   : (0 0 0)

forceCoeffs forceCoeffs write:
    Cm    = 1.04933e-09
    Cd    = 2.10545
    Cl    = -2.08972e-07
    Cl(f) = -1.03437e-07
    Cl(r) = -1.05535e-07

Time = 0.23

Courant Number mean: 0.0516926 max: 0.346867
smoothSolver:  Solving for Ux, Initial residual = 0.00175582, Final residual = 3.77831e-08, No Iterations 2
smoothSolver:  Solving for Uy, Initial residual = 0.0017102, Final residual = 3.63046e-08, No Iterations 2
DICPCG:  Solving for p, Initial residual = 0.0111367, Final residual = 9.20611e-08, No Iterations 97
time step continuity errors : sum local = 1.11272e-12, global = 2.25499e-14, cumulative = 5.46464e-13
DICPCG:  Solving for p, Initial residual = 0.000662644, Final residual = 7.48693e-08, No Iterations 86
time step continuity errors : sum local = 8.99585e-13, global = 6.18915e-15, cumulative = 5.52653e-13
ExecutionTime = 1.03 s  ClockTime = 7 s

forces forces write:
    sum of forces:
        pressure : (0.0558118 -1.10854e-08 7.14012e-28)
        viscous  : (0.048599 -1.50216e-10 -2.38909e-21)
        porous   : (0 0 0)
    sum of moments:
        pressure : (-5.57061e-21 -1.43839e-21 3.29602e-19)
        viscous  : (-4.05968e-22 -3.80386e-21 5.09038e-11)
        porous   : (0 0 0)

forceCoeffs forceCoeffs write:
    Cm    = 1.01808e-09
    Cd    = 2.08822
    Cl    = -2.24713e-07
    Cl(f) = -1.11339e-07
    Cl(r) = -1.13375e-07

Time = 0.235

Courant Number mean: 0.051692 max: 0.3463
smoothSolver:  Solving for Ux, Initial residual = 0.00173235, Final residual = 3.74936e-08, No Iterations 2
smoothSolver:  Solving for Uy, Initial residual = 0.00169358, Final residual = 3.588e-08, No Iterations 2
DICPCG:  Solving for p, Initial residual = 0.0109881, Final residual = 8.84277e-08, No Iterations 97
time step continuity errors : sum local = 1.06005e-12, global = 2.25578e-14, cumulative = 5.75211e-13
DICPCG:  Solving for p, Initial residual = 0.000674324, Final residual = 7.72427e-08, No Iterations 86
time step continuity errors : sum local = 9.20614e-13, global = 7.92369e-15, cumulative = 5.83135e-13
ExecutionTime = 1.04 s  ClockTime = 7 s

forces forces write:
    sum of forces:
        pressure : (0.0555628 -1.08098e-08 7.44936e-28)
        viscous  : (0.0480202 -1.54452e-10 -2.42781e-21)
        porous   : (0 0 0)
    sum of moments:
        pressure : (-5.53952e-21 -1.43302e-21 3.55754e-19)
        viscous  : (-4.01357e-22 -3.75887e-21 4.95712e-11)
        porous   : (0 0 0)

forceCoeffs forceCoeffs write:
    Cm    = 9.91424e-10
    Cd    = 2.07166
    Cl    = -2.19285e-07
    Cl(f) = -1.08651e-07
    Cl(r) = -1.10634e-07

Time = 0.24

Courant Number mean: 0.0516913 max: 0.34573
smoothSolver:  Solving for Ux, Initial residual = 0.00170975, Final residual = 3.72048e-08, No Iterations 2
smoothSolver:  Solving for Uy, Initial residual = 0.00167749, Final residual = 3.5479e-08, No Iterations 2
DICPCG:  Solving for p, Initial residual = 0.0106845, Final residual = 8.86786e-08, No Iterations 97
time step continuity errors : sum local = 1.05473e-12, global = 2.65753e-14, cumulative = 6.0971e-13
DICPCG:  Solving for p, Initial residual = 0.000658607, Final residual = 7.81602e-08, No Iterations 86
time step continuity errors : sum local = 9.2456e-13, global = 5.16753e-15, cumulative = 6.14878e-13
ExecutionTime = 1.06 s  ClockTime = 7 s

forces forces write:
    sum of forces:
        pressure : (0.0553247 -1.0743e-08 9.01959e-28)
        viscous  : (0.0474567 -1.60877e-10 -2.46614e-21)
        porous   : (0 0 0)
    sum of moments:
        pressure : (-5.50996e-21 -1.42803e-21 3.68539e-19)
        viscous  : (-3.96916e-22 -3.71504e-21 4.84286e-11)
        porous   : (0 0 0)

forceCoeffs forceCoeffs write:
    Cm    = 9.68571e-10
    Cd    = 2.05563
    Cl    = -2.18077e-07
    Cl(f) = -1.0807e-07
    Cl(r) = -1.10007e-07

Time = 0.245

Courant Number mean: 0.0516907 max: 0.345157
smoothSolver:  Solving for Ux, Initial residual = 0.00168785, Final residual = 3.69069e-08, No Iterations 2
smoothSolver:  Solving for Uy, Initial residual = 0.00166187, Final residual = 3.50449e-08, No Iterations 2
DICPCG:  Solving for p, Initial residual = 0.0111462, Final residual = 8.50774e-08, No Iterations 97
time step continuity errors : sum local = 1.00397e-12, global = 3.05885e-14, cumulative = 6.45466e-13
DICPCG:  Solving for p, Initial residual = 0.000723957, Final residual = 7.81226e-08, No Iterations 86
time step continuity errors : sum local = 9.16639e-13, global = 1.59007e-16, cumulative = 6.45625e-13
ExecutionTime = 1.07 s  ClockTime = 7 s

forces forces write:
    sum of forces:
        pressure : (0.0551084 -1.1004e-08 8.84957e-28)
        viscous  : (0.0469081 -1.65985e-10 -2.50406e-21)
        porous   : (0 0 0)
    sum of moments:
        pressure : (-5.48467e-21 -1.42341e-21 1.77242e-19)
        viscous  : (-3.92603e-22 -3.67232e-21 4.7497e-11)
        porous   : (0 0 0)

forceCoeffs forceCoeffs write:
    Cm    = 9.49939e-10
    Cd    = 2.04033
    Cl    = -2.234e-07
    Cl(f) = -1.1075e-07
    Cl(r) = -1.1265e-07

Time = 0.25

Courant Number mean: 0.05169 max: 0.344581
smoothSolver:  Solving for Ux, Initial residual = 0.0016666, Final residual = 3.66287e-08, No Iterations 2
smoothSolver:  Solving for Uy, Initial residual = 0.00164662, Final residual = 3.46061e-08, No Iterations 2
DICPCG:  Solving for p, Initial residual = 0.0104386, Final residual = 8.25764e-08, No Iterations 96
time step continuity errors : sum local = 9.668e-13, global = 2.39189e-14, cumulative = 6.69544e-13
DICPCG:  Solving for p, Initial residual = 0.000672456, Final residual = 7.66181e-08, No Iterations 86
time step continuity errors : sum local = 8.92182e-13, global = 6.50815e-15, cumulative = 6.76052e-13
ExecutionTime = 1.09 s  ClockTime = 7 s

forces forces write:
    sum of forces:
        pressure : (0.054904 -1.10204e-08 8.86913e-28)
        viscous  : (0.0463738 -1.74411e-10 -2.54153e-21)
        porous   : (0 0 0)
    sum of moments:
        pressure : (-5.45958e-21 -1.41888e-21 7.13202e-19)
        viscous  : (-3.884e-22 -3.63068e-21 4.67418e-11)
        porous   : (0 0 0)

forceCoeffs forceCoeffs write:
    Cm    = 9.34837e-10
    Cd    = 2.02556
    Cl    = -2.23896e-07
    Cl(f) = -1.11013e-07
    Cl(r) = -1.12883e-07

Time = 0.255

Courant Number mean: 0.0516894 max: 0.344002
smoothSolver:  Solving for Ux, Initial residual = 0.00164635, Final residual = 3.63325e-08, No Iterations 2
smoothSolver:  Solving for Uy, Initial residual = 0.00163195, Final residual = 3.42036e-08, No Iterations 2
DICPCG:  Solving for p, Initial residual = 0.0101725, Final residual = 6.65834e-08, No Iterations 96
time step continuity errors : sum local = 7.74013e-13, global = -2.14624e-16, cumulative = 6.75838e-13
DICPCG:  Solving for p, Initial residual = 0.000640748, Final residual = 7.69788e-08, No Iterations 86
time step continuity errors : sum local = 8.90509e-13, global = 6.96461e-15, cumulative = 6.82802e-13
ExecutionTime = 1.11 s  ClockTime = 7 s

forces forces write:
    sum of forces:
        pressure : (0.0547076 -1.19098e-08 8.9348e-28)
        viscous  : (0.0458535 -1.75632e-10 -2.57854e-21)
        porous   : (0 0 0)
    sum of moments:
        pressure : (-5.43509e-21 -1.41464e-21 2.77403e-19)
        viscous  : (-3.84274e-22 -3.59008e-21 4.61939e-11)
        porous   : (0 0 0)

forceCoeffs forceCoeffs write:
    Cm    = 9.23878e-10
    Cd    = 2.01122
    Cl    = -2.41708e-07
    Cl(f) = -1.1993e-07
    Cl(r) = -1.21778e-07

Time = 0.26

Courant Number mean: 0.0516888 max: 0.343419
smoothSolver:  Solving for Ux, Initial residual = 0.00162667, Final residual = 3.6017e-08, No Iterations 2
smoothSolver:  Solving for Uy, Initial residual = 0.00161768, Final residual = 3.37607e-08, No Iterations 2
DICPCG:  Solving for p, Initial residual = 0.00948199, Final residual = 7.36996e-08, No Iterations 96
time step continuity errors : sum local = 8.51002e-13, global = -2.53774e-14, cumulative = 6.57425e-13
DICPCG:  Solving for p, Initial residual = 0.000603456, Final residual = 7.75192e-08, No Iterations 86
time step continuity errors : sum local = 8.90744e-13, global = 7.93714e-15, cumulative = 6.65362e-13
ExecutionTime = 1.12 s  ClockTime = 7 s

forces forces write:
    sum of forces:
        pressure : (0.0545198 -1.14428e-08 9.34043e-28)
        viscous  : (0.0453468 -1.83076e-10 -2.61511e-21)
        porous   : (0 0 0)
    sum of moments:
        pressure : (-5.41195e-21 -1.41085e-21 3.41725e-19)
        viscous  : (-3.80321e-22 -3.55051e-21 4.58586e-11)
        porous   : (0 0 0)

forceCoeffs forceCoeffs write:
    Cm    = 9.17173e-10
    Cd    = 1.99733
    Cl    = -2.32517e-07
    Cl(f) = -1.15341e-07
    Cl(r) = -1.17176e-07

Time = 0.265

Courant Number mean: 0.0516882 max: 0.342835
smoothSolver:  Solving for Ux, Initial residual = 0.00160748, Final residual = 3.56726e-08, No Iterations 2
smoothSolver:  Solving for Uy, Initial residual = 0.0016041, Final residual = 3.33463e-08, No Iterations 2
DICPCG:  Solving for p, Initial residual = 0.00934846, Final residual = 8.71276e-08, No Iterations 96
time step continuity errors : sum local = 9.99342e-13, global = -2.69232e-14, cumulative = 6.38439e-13
DICPCG:  Solving for p, Initial residual = 0.000607608, Final residual = 7.88381e-08, No Iterations 86
time step continuity errors : sum local = 8.99946e-13, global = 8.69369e-15, cumulative = 6.47133e-13
ExecutionTime = 1.14 s  ClockTime = 8 s

forces forces write:
    sum of forces:
        pressure : (0.0543451 -1.13798e-08 9.65881e-28)
        viscous  : (0.0448532 -1.86142e-10 -2.65122e-21)
        porous   : (0 0 0)
    sum of moments:
        pressure : (-5.38999e-21 -1.40715e-21 -7.07802e-20)
        viscous  : (-3.76505e-22 -3.51194e-21 4.57406e-11)
        porous   : (0 0 0)

forceCoeffs forceCoeffs write:
    Cm    = 9.14812e-10
    Cd    = 1.98397
    Cl    = -2.31319e-07
    Cl(f) = -1.14745e-07
    Cl(r) = -1.16574e-07

Time = 0.27

Courant Number mean: 0.0516876 max: 0.342251
smoothSolver:  Solving for Ux, Initial residual = 0.00158888, Final residual = 3.53161e-08, No Iterations 2
smoothSolver:  Solving for Uy, Initial residual = 0.00159118, Final residual = 3.29498e-08, No Iterations 2
DICPCG:  Solving for p, Initial residual = 0.00903597, Final residual = 9.33168e-08, No Iterations 96
time step continuity errors : sum local = 1.06348e-12, global = -2.34844e-14, cumulative = 6.23648e-13
DICPCG:  Solving for p, Initial residual = 0.000581735, Final residual = 7.86905e-08, No Iterations 86
time step continuity errors : sum local = 8.92717e-13, global = 8.37351e-15, cumulative = 6.32022e-13
ExecutionTime = 1.15 s  ClockTime = 8 s

forces forces write:
    sum of forces:
        pressure : (0.0541764 -1.1349e-08 1.00894e-27)
        viscous  : (0.0443723 -1.92687e-10 -2.68689e-21)
        porous   : (0 0 0)
    sum of moments:
        pressure : (-5.36853e-21 -1.40378e-21 -2.96991e-20)
        viscous  : (-3.72813e-22 -3.47434e-21 4.58069e-11)
        porous   : (0 0 0)

forceCoeffs forceCoeffs write:
    Cm    = 9.16139e-10
    Cd    = 1.97097
    Cl    = -2.30834e-07
    Cl(f) = -1.14501e-07
    Cl(r) = -1.16333e-07

Time = 0.275

Courant Number mean: 0.0516871 max: 0.341665
smoothSolver:  Solving for Ux, Initial residual = 0.00157088, Final residual = 3.49462e-08, No Iterations 2
smoothSolver:  Solving for Uy, Initial residual = 0.00157877, Final residual = 3.25291e-08, No Iterations 2
DICPCG:  Solving for p, Initial residual = 0.00889772, Final residual = 9.56393e-08, No Iterations 96
time step continuity errors : sum local = 1.08329e-12, global = -1.93829e-14, cumulative = 6.12639e-13
DICPCG:  Solving for p, Initial residual = 0.000580577, Final residual = 9.96945e-08, No Iterations 85
time step continuity errors : sum local = 1.12426e-12, global = 1.04479e-14, cumulative = 6.23087e-13
ExecutionTime = 1.17 s  ClockTime = 8 s

forces forces write:
    sum of forces:
        pressure : (0.0540183 -1.00996e-08 1.07389e-27)
        viscous  : (0.0439038 -1.95879e-10 -2.72211e-21)
        porous   : (0 0 0)
    sum of moments:
        pressure : (-5.3481e-21 -1.40055e-21 4.62904e-19)
        viscous  : (-3.69252e-22 -3.43768e-21 4.60595e-11)
        porous   : (0 0 0)

forceCoeffs forceCoeffs write:
    Cm    = 9.21191e-10
    Cd    = 1.95844
    Cl    = -2.0591e-07
    Cl(f) = -1.02034e-07
    Cl(r) = -1.03876e-07

Time = 0.28

Courant Number mean: 0.0516865 max: 0.34108
smoothSolver:  Solving for Ux, Initial residual = 0.00155343, Final residual = 3.45656e-08, No Iterations 2
smoothSolver:  Solving for Uy, Initial residual = 0.00156696, Final residual = 3.21222e-08, No Iterations 2
DICPCG:  Solving for p, Initial residual = 0.0086885, Final residual = 9.63376e-08, No Iterations 96
time step continuity errors : sum local = 1.08472e-12, global = -1.67155e-14, cumulative = 6.06371e-13
DICPCG:  Solving for p, Initial residual = 0.000567049, Final residual = 9.76556e-08, No Iterations 85
time step continuity errors : sum local = 1.09973e-12, global = 1.16653e-14, cumulative = 6.18036e-13
ExecutionTime = 1.19 s  ClockTime = 8 s

forces forces write:
    sum of forces:
        pressure : (0.0538681 -1.10369e-08 1.04739e-27)
        viscous  : (0.0434473 -2.01424e-10 -2.75688e-21)
        porous   : (0 0 0)
    sum of moments:
        pressure : (-5.32847e-21 -1.39757e-21 2.29705e-19)
        viscous  : (-3.65817e-22 -3.40193e-21 4.64105e-11)
        porous   : (0 0 0)

forceCoeffs forceCoeffs write:
    Cm    = 9.28209e-10
    Cd    = 1.94631
    Cl    = -2.24766e-07
    Cl(f) = -1.11455e-07
    Cl(r) = -1.13311e-07

Time = 0.285

Courant Number mean: 0.0516859 max: 0.340493
smoothSolver:  Solving for Ux, Initial residual = 0.00153654, Final residual = 3.41768e-08, No Iterations 2
smoothSolver:  Solving for Uy, Initial residual = 0.00155589, Final residual = 3.17185e-08, No Iterations 2
DICPCG:  Solving for p, Initial residual = 0.00850511, Final residual = 9.56188e-08, No Iterations 96
time step continuity errors : sum local = 1.07496e-12, global = -1.4896e-14, cumulative = 6.0314e-13
DICPCG:  Solving for p, Initial residual = 0.000560942, Final residual = 9.40142e-08, No Iterations 85
time step continuity errors : sum local = 1.05792e-12, global = 1.28718e-14, cumulative = 6.16012e-13
ExecutionTime = 1.2 s  ClockTime = 8 s

forces forces write:
    sum of forces:
        pressure : (0.0537264 -1.09931e-08 1.06484e-27)
        viscous  : (0.0430025 -2.0657e-10 -2.7912e-21)
        porous   : (0 0 0)
    sum of moments:
        pressure : (-5.30962e-21 -1.39478e-21 -1.06832e-19)
        viscous  : (-3.62503e-22 -3.36707e-21 4.69258e-11)
        porous   : (0 0 0)

forceCoeffs forceCoeffs write:
    Cm    = 9.38516e-10
    Cd    = 1.93458
    Cl    = -2.23994e-07
    Cl(f) = -1.11058e-07
    Cl(r) = -1.12935e-07

Time = 0.29

Courant Number mean: 0.0516854 max: 0.339945
smoothSolver:  Solving for Ux, Initial residual = 0.00152029, Final residual = 3.37807e-08, No Iterations 2
smoothSolver:  Solving for Uy, Initial residual = 0.00154575, Final residual = 3.13265e-08, No Iterations 2
DICPCG:  Solving for p, Initial residual = 0.00826759, Final residual = 9.47638e-08, No Iterations 96
time step continuity errors : sum local = 1.06465e-12, global = -1.33798e-14, cumulative = 6.02633e-13
DICPCG:  Solving for p, Initial residual = 0.000552509, Final residual = 8.74202e-08, No Iterations 85
time step continuity errors : sum local = 9.83106e-13, global = 1.13869e-14, cumulative = 6.14019e-13
ExecutionTime = 1.22 s  ClockTime = 8 s

forces forces write:
    sum of forces:
        pressure : (0.0535921 -1.08277e-08 1.08497e-27)
        viscous  : (0.0425688 -2.11574e-10 -2.82508e-21)
        porous   : (0 0 0)
    sum of moments:
        pressure : (-5.29142e-21 -1.39218e-21 3.57607e-19)
        viscous  : (-3.59307e-22 -3.33307e-21 4.75947e-11)
        porous   : (0 0 0)

forceCoeffs forceCoeffs write:
    Cm    = 9.51895e-10
    Cd    = 1.92322
    Cl    = -2.20785e-07
    Cl(f) = -1.09441e-07
    Cl(r) = -1.11344e-07

Time = 0.295

Courant Number mean: 0.0516848 max: 0.339402
smoothSolver:  Solving for Ux, Initial residual = 0.00150474, Final residual = 3.33792e-08, No Iterations 2
smoothSolver:  Solving for Uy, Initial residual = 0.00153622, Final residual = 3.09385e-08, No Iterations 2
DICPCG:  Solving for p, Initial residual = 0.0084613, Final residual = 9.28003e-08, No Iterations 96
time step continuity errors : sum local = 1.04191e-12, global = -1.13325e-14, cumulative = 6.02687e-13
DICPCG:  Solving for p, Initial residual = 0.000579997, Final residual = 9.4646e-08, No Iterations 84
time step continuity errors : sum local = 1.06355e-12, global = 5.13638e-15, cumulative = 6.07823e-13
ExecutionTime = 1.23 s  ClockTime = 8 s

forces forces write:
    sum of forces:
        pressure : (0.0534752 -8.927e-09 1.25672e-27)
        viscous  : (0.042146 -2.19579e-10 -2.85848e-21)
        porous   : (0 0 0)
    sum of moments:
        pressure : (-5.2772e-21 -1.39e-21 -8.57621e-20)
        viscous  : (-3.5621e-22 -3.29988e-21 4.83847e-11)
        porous   : (0 0 0)

forceCoeffs forceCoeffs write:
    Cm    = 9.67695e-10
    Cd    = 1.91243
    Cl    = -1.82932e-07
    Cl(f) = -9.04981e-08
    Cl(r) = -9.24335e-08

Time = 0.3

Courant Number mean: 0.0516843 max: 0.33886
smoothSolver:  Solving for Ux, Initial residual = 0.00148982, Final residual = 3.29841e-08, No Iterations 2
smoothSolver:  Solving for Uy, Initial residual = 0.00152693, Final residual = 3.05881e-08, No Iterations 2
DICPCG:  Solving for p, Initial residual = 0.00827206, Final residual = 9.16651e-08, No Iterations 96
time step continuity errors : sum local = 1.02816e-12, global = -1.09958e-14, cumulative = 5.96828e-13
DICPCG:  Solving for p, Initial residual = 0.00056295, Final residual = 9.71149e-08, No Iterations 84
time step continuity errors : sum local = 1.08992e-12, global = -1.01077e-14, cumulative = 5.8672e-13
ExecutionTime = 1.26 s  ClockTime = 8 s

forces forces write:
    sum of forces:
        pressure : (0.0533637 -1.11609e-08 1.13597e-27)
        viscous  : (0.0417337 -2.26402e-10 -2.89142e-21)
        porous   : (0 0 0)
    sum of moments:
        pressure : (-5.26297e-21 -1.38803e-21 4.73121e-19)
        viscous  : (-3.53196e-22 -3.26748e-21 4.93001e-11)
        porous   : (0 0 0)

forceCoeffs forceCoeffs write:
    Cm    = 9.86001e-10
    Cd    = 1.90195
    Cl    = -2.27746e-07
    Cl(f) = -1.12887e-07
    Cl(r) = -1.14859e-07

Time = 0.305

Courant Number mean: 0.0516838 max: 0.338317
smoothSolver:  Solving for Ux, Initial residual = 0.00147533, Final residual = 3.2584e-08, No Iterations 2
smoothSolver:  Solving for Uy, Initial residual = 0.00151778, Final residual = 3.02341e-08, No Iterations 2
DICPCG:  Solving for p, Initial residual = 0.00806834, Final residual = 9.13683e-08, No Iterations 96
time step continuity errors : sum local = 1.02386e-12, global = -1.08331e-14, cumulative = 5.75887e-13
DICPCG:  Solving for p, Initial residual = 0.000553613, Final residual = 9.13414e-08, No Iterations 85
time step continuity errors : sum local = 1.0244e-12, global = -6.96553e-15, cumulative = 5.68921e-13
ExecutionTime = 1.27 s  ClockTime = 8 s

forces forces write:
    sum of forces:
        pressure : (0.0532555 -1.26199e-08 1.18004e-27)
        viscous  : (0.0413316 -2.39369e-10 -2.92393e-21)
        porous   : (0 0 0)
    sum of moments:
        pressure : (-5.24849e-21 -1.3862e-21 1.29808e-19)
        viscous  : (-3.50266e-22 -3.23583e-21 5.03261e-11)
        porous   : (0 0 0)

forceCoeffs forceCoeffs write:
    Cm    = 1.00652e-09
    Cd    = 1.89174
    Cl    = -2.57186e-07
    Cl(f) = -1.27586e-07
    Cl(r) = -1.29599e-07

Time = 0.31

Courant Number mean: 0.0516833 max: 0.337773
smoothSolver:  Solving for Ux, Initial residual = 0.00146111, Final residual = 3.21785e-08, No Iterations 2
smoothSolver:  Solving for Uy, Initial residual = 0.00150878, Final residual = 2.98658e-08, No Iterations 2
DICPCG:  Solving for p, Initial residual = 0.00785027, Final residual = 8.81501e-08, No Iterations 96
time step continuity errors : sum local = 9.87177e-13, global = -9.7005e-15, cumulative = 5.59221e-13
DICPCG:  Solving for p, Initial residual = 0.000537326, Final residual = 9.37436e-08, No Iterations 85
time step continuity errors : sum local = 1.05069e-12, global = -6.30034e-15, cumulative = 5.5292e-13
ExecutionTime = 1.29 s  ClockTime = 8 s

forces forces write:
    sum of forces:
        pressure : (0.0531528 -1.14616e-08 1.15498e-27)
        viscous  : (0.0409395 -2.46558e-10 -2.95597e-21)
        porous   : (0 0 0)
    sum of moments:
        pressure : (-5.23407e-21 -1.3845e-21 2.97097e-19)
        viscous  : (-3.47441e-22 -3.20494e-21 5.14479e-11)
        porous   : (0 0 0)

forceCoeffs forceCoeffs write:
    Cm    = 1.02896e-09
    Cd    = 1.88185
    Cl    = -2.34164e-07
    Cl(f) = -1.16053e-07
    Cl(r) = -1.18111e-07

Time = 0.315

Courant Number mean: 0.0516828 max: 0.337229
smoothSolver:  Solving for Ux, Initial residual = 0.00144718, Final residual = 3.17659e-08, No Iterations 2
smoothSolver:  Solving for Uy, Initial residual = 0.00150016, Final residual = 2.9512e-08, No Iterations 2
DICPCG:  Solving for p, Initial residual = 0.00782513, Final residual = 8.65276e-08, No Iterations 96
time step continuity errors : sum local = 9.67775e-13, global = -7.33753e-15, cumulative = 5.45583e-13
DICPCG:  Solving for p, Initial residual = 0.00058134, Final residual = 9.51553e-08, No Iterations 85
time step continuity errors : sum local = 1.06441e-12, global = -5.94577e-15, cumulative = 5.39637e-13
ExecutionTime = 1.31 s  ClockTime = 8 s

forces forces write:
    sum of forces:
        pressure : (0.0530647 -1.113e-08 1.17864e-27)
        viscous  : (0.040557 -2.54454e-10 -2.98752e-21)
        porous   : (0 0 0)
    sum of moments:
        pressure : (-5.22204e-21 -1.38301e-21 1.60989e-19)
        viscous  : (-3.44765e-22 -3.17483e-21 5.26577e-11)
        porous   : (0 0 0)

forceCoeffs forceCoeffs write:
    Cm    = 1.05315e-09
    Cd    = 1.87243
    Cl    = -2.27688e-07
    Cl(f) = -1.12791e-07
    Cl(r) = -1.14897e-07

Time = 0.32

Courant Number mean: 0.0516823 max: 0.33669
smoothSolver:  Solving for Ux, Initial residual = 0.00143362, Final residual = 3.13357e-08, No Iterations 2
smoothSolver:  Solving for Uy, Initial residual = 0.00149206, Final residual = 2.92734e-08, No Iterations 2
DICPCG:  Solving for p, Initial residual = 0.00759873, Final residual = 9.0298e-08, No Iterations 96
time step continuity errors : sum local = 1.00816e-12, global = -8.70857e-15, cumulative = 5.30929e-13
DICPCG:  Solving for p, Initial residual = 0.000544209, Final residual = 9.7566e-08, No Iterations 85
time step continuity errors : sum local = 1.08953e-12, global = -3.07155e-15, cumulative = 5.27857e-13
ExecutionTime = 1.33 s  ClockTime = 8 s

forces forces write:
    sum of forces:
        pressure : (0.0529778 -1.14216e-08 1.22264e-27)
        viscous  : (0.0401838 -2.62484e-10 -3.01865e-21)
        porous   : (0 0 0)
    sum of moments:
        pressure : (-5.20947e-21 -1.38171e-21 2.45904e-19)
        viscous  : (-3.42151e-22 -3.14544e-21 5.39398e-11)
        porous   : (0 0 0)

forceCoeffs forceCoeffs write:
    Cm    = 1.0788e-09
    Cd    = 1.86323
    Cl    = -2.33682e-07
    Cl(f) = -1.15762e-07
    Cl(r) = -1.1792e-07

Time = 0.325

Courant Number mean: 0.0516818 max: 0.336155
smoothSolver:  Solving for Ux, Initial residual = 0.00142044, Final residual = 3.09128e-08, No Iterations 2
smoothSolver:  Solving for Uy, Initial residual = 0.00148388, Final residual = 2.8989e-08, No Iterations 2
DICPCG:  Solving for p, Initial residual = 0.00717046, Final residual = 8.45958e-08, No Iterations 96
time step continuity errors : sum local = 9.43371e-13, global = -7.85512e-15, cumulative = 5.20002e-13
DICPCG:  Solving for p, Initial residual = 0.000506164, Final residual = 9.63709e-08, No Iterations 85
time step continuity errors : sum local = 1.07539e-12, global = -1.54787e-15, cumulative = 5.18454e-13
ExecutionTime = 1.34 s  ClockTime = 8 s

forces forces write:
    sum of forces:
        pressure : (0.0528951 -1.12609e-08 1.24297e-27)
[...]
        viscous  : (0.0199539 -1.42984e-09 -4.23051e-21)
        porous   : (0 0 0)
    sum of moments:
        pressure : (-5.22486e-21 -1.98491e-21 1.84653e-19)
        viscous  : (-4.35687e-23 -1.57456e-21 -6.22493e-11)
        porous   : (0 0 0)

forceCoeffs forceCoeffs write:
    Cm    = -1.24499e-09
    Cd    = 1.66791
    Cl    = -2.16995e-07
    Cl(f) = -1.09743e-07
    Cl(r) = -1.07253e-07

Time = 1.925

Courant Number mean: 0.0522061 max: 0.277355
smoothSolver:  Solving for Ux, Initial residual = 0.000546981, Final residual = 2.5794e-09, No Iterations 2
smoothSolver:  Solving for Uy, Initial residual = 0.000797669, Final residual = 4.3814e-09, No Iterations 2
DICPCG:  Solving for p, Initial residual = 0.0018554, Final residual = 9.16899e-08, No Iterations 91
time step continuity errors : sum local = 1.12915e-12, global = -5.74963e-15, cumulative = 2.7061e-12
DICPCG:  Solving for p, Initial residual = 9.80396e-05, Final residual = 8.36623e-08, No Iterations 72
time step continuity errors : sum local = 1.03062e-12, global = 2.87624e-15, cumulative = 2.70898e-12
ExecutionTime = 6.31 s  ClockTime = 13 s

forces forces write:
    sum of forces:
        pressure : (0.0634288 -9.44266e-09 1.25111e-27)
        viscous  : (0.0199457 -1.43089e-09 -4.22832e-21)
        porous   : (0 0 0)
    sum of moments:
        pressure : (-5.22233e-21 -1.98507e-21 7.96211e-20)
        viscous  : (-4.29443e-23 -1.57412e-21 -6.24076e-11)
        porous   : (0 0 0)

forceCoeffs forceCoeffs write:
    Cm    = -1.24815e-09
    Cd    = 1.66749
    Cl    = -2.17471e-07
    Cl(f) = -1.09984e-07
    Cl(r) = -1.07487e-07

Time = 1.93

Courant Number mean: 0.0522079 max: 0.277283
smoothSolver:  Solving for Ux, Initial residual = 0.000546013, Final residual = 2.56833e-09, No Iterations 2
smoothSolver:  Solving for Uy, Initial residual = 0.000797381, Final residual = 4.36993e-09, No Iterations 2
DICPCG:  Solving for p, Initial residual = 0.00213356, Final residual = 9.3268e-08, No Iterations 93
time step continuity errors : sum local = 1.14927e-12, global = 1.43868e-14, cumulative = 2.72336e-12
DICPCG:  Solving for p, Initial residual = 0.000107517, Final residual = 8.66224e-08, No Iterations 66
time step continuity errors : sum local = 1.06842e-12, global = 3.41855e-14, cumulative = 2.75755e-12
ExecutionTime = 6.32 s  ClockTime = 13 s

forces forces write:
    sum of forces:
        pressure : (0.0634494 -2.68908e-09 1.7116e-27)
        viscous  : (0.0199375 -1.41798e-09 -4.22627e-21)
        porous   : (0 0 0)
    sum of moments:
        pressure : (-5.22293e-21 -1.98624e-21 1.38913e-19)
        viscous  : (-4.23145e-23 -1.57373e-21 -6.25697e-11)
        porous   : (0 0 0)

forceCoeffs forceCoeffs write:
    Cm    = -1.25139e-09
    Cd    = 1.66774
    Cl    = -8.21412e-08
    Cl(f) = -4.2322e-08
    Cl(r) = -3.98192e-08

Time = 1.935

Courant Number mean: 0.0522097 max: 0.277212
smoothSolver:  Solving for Ux, Initial residual = 0.000544645, Final residual = 2.55292e-09, No Iterations 2
smoothSolver:  Solving for Uy, Initial residual = 0.000793932, Final residual = 4.35117e-09, No Iterations 2
DICPCG:  Solving for p, Initial residual = 0.00167162, Final residual = 7.57207e-08, No Iterations 82
time step continuity errors : sum local = 9.34366e-13, global = -1.24094e-14, cumulative = 2.74514e-12
DICPCG:  Solving for p, Initial residual = 9.58354e-05, Final residual = 7.92561e-08, No Iterations 71
time step continuity errors : sum local = 9.78824e-13, global = -1.56434e-14, cumulative = 2.7295e-12
ExecutionTime = 6.35 s  ClockTime = 13 s

forces forces write:
    sum of forces:
        pressure : (0.0634552 -1.35296e-08 1.13873e-27)
        viscous  : (0.0199295 -1.43014e-09 -4.22416e-21)
        porous   : (0 0 0)
    sum of moments:
        pressure : (-5.22214e-21 -1.98697e-21 -3.78624e-19)
        viscous  : (-4.16903e-23 -1.57333e-21 -6.27369e-11)
        porous   : (0 0 0)

forceCoeffs forceCoeffs write:
    Cm    = -1.25474e-09
    Cd    = 1.66769
    Cl    = -2.99194e-07
    Cl(f) = -1.50852e-07
    Cl(r) = -1.48342e-07

Time = 1.94

Courant Number mean: 0.0522115 max: 0.27714
smoothSolver:  Solving for Ux, Initial residual = 0.000543477, Final residual = 2.53969e-09, No Iterations 2
smoothSolver:  Solving for Uy, Initial residual = 0.000792109, Final residual = 4.33612e-09, No Iterations 2
DICPCG:  Solving for p, Initial residual = 0.00173082, Final residual = 9.93073e-08, No Iterations 91
time step continuity errors : sum local = 1.22633e-12, global = -7.99593e-15, cumulative = 2.7215e-12
DICPCG:  Solving for p, Initial residual = 9.23884e-05, Final residual = 8.46256e-08, No Iterations 72
time step continuity errors : sum local = 1.04507e-12, global = 4.46526e-15, cumulative = 2.72597e-12
ExecutionTime = 6.36 s  ClockTime = 13 s

forces forces write:
    sum of forces:
        pressure : (0.0634432 -1.17506e-08 1.33722e-27)
        viscous  : (0.0199215 -1.43754e-09 -4.22198e-21)
        porous   : (0 0 0)
    sum of moments:
        pressure : (-5.21969e-21 -1.98718e-21 2.28699e-19)
        viscous  : (-4.10717e-23 -1.57291e-21 -6.28783e-11)
        porous   : (0 0 0)

forceCoeffs forceCoeffs write:
    Cm    = -1.25757e-09
    Cd    = 1.66729
    Cl    = -2.63763e-07
    Cl(f) = -1.33139e-07
    Cl(r) = -1.30624e-07

Time = 1.945

Courant Number mean: 0.0522134 max: 0.277069
smoothSolver:  Solving for Ux, Initial residual = 0.00054248, Final residual = 2.52888e-09, No Iterations 2
smoothSolver:  Solving for Uy, Initial residual = 0.000791269, Final residual = 4.32474e-09, No Iterations 2
DICPCG:  Solving for p, Initial residual = 0.00217535, Final residual = 9.33102e-08, No Iterations 91
time step continuity errors : sum local = 1.15179e-12, global = -1.81139e-15, cumulative = 2.72415e-12
DICPCG:  Solving for p, Initial residual = 0.000105581, Final residual = 8.96661e-08, No Iterations 72
time step continuity errors : sum local = 1.10627e-12, global = 5.72607e-15, cumulative = 2.72988e-12
ExecutionTime = 6.38 s  ClockTime = 13 s

forces forces write:
    sum of forces:
        pressure : (0.0634156 -9.95555e-09 1.22584e-27)
        viscous  : (0.0199135 -1.43975e-09 -4.21978e-21)
        porous   : (0 0 0)
    sum of moments:
        pressure : (-5.21597e-21 -1.98685e-21 5.6243e-19)
        viscous  : (-4.04662e-23 -1.57249e-21 -6.30524e-11)
        porous   : (0 0 0)

forceCoeffs forceCoeffs write:
    Cm    = -1.26105e-09
    Cd    = 1.66658
    Cl    = -2.27906e-07
    Cl(f) = -1.15214e-07
    Cl(r) = -1.12692e-07

Time = 1.95

Courant Number mean: 0.0522153 max: 0.276998
smoothSolver:  Solving for Ux, Initial residual = 0.000541519, Final residual = 2.51845e-09, No Iterations 2
smoothSolver:  Solving for Uy, Initial residual = 0.000791048, Final residual = 4.31432e-09, No Iterations 2
DICPCG:  Solving for p, Initial residual = 0.00183089, Final residual = 9.44347e-08, No Iterations 86
time step continuity errors : sum local = 1.16535e-12, global = 4.12704e-15, cumulative = 2.73401e-12
DICPCG:  Solving for p, Initial residual = 9.71398e-05, Final residual = 7.82624e-08, No Iterations 72
time step continuity errors : sum local = 9.66276e-13, global = 2.38257e-15, cumulative = 2.73639e-12
ExecutionTime = 6.39 s  ClockTime = 13 s

forces forces write:
    sum of forces:
        pressure : (0.0634096 -8.97797e-09 1.28925e-27)
        viscous  : (0.0199055 -1.43595e-09 -4.21769e-21)
        porous   : (0 0 0)
    sum of moments:
        pressure : (-5.21428e-21 -1.98714e-21 3.19331e-19)
        viscous  : (-3.98578e-23 -1.57208e-21 -6.32437e-11)
        porous   : (0 0 0)

forceCoeffs forceCoeffs write:
    Cm    = -1.26487e-09
    Cd    = 1.6663
    Cl    = -2.08278e-07
    Cl(f) = -1.05404e-07
    Cl(r) = -1.02874e-07

Time = 1.955

Courant Number mean: 0.0522172 max: 0.276927
smoothSolver:  Solving for Ux, Initial residual = 0.00054037, Final residual = 2.50551e-09, No Iterations 2
smoothSolver:  Solving for Uy, Initial residual = 0.000789692, Final residual = 4.30045e-09, No Iterations 2
DICPCG:  Solving for p, Initial residual = 0.00196744, Final residual = 9.77521e-08, No Iterations 81
time step continuity errors : sum local = 1.20723e-12, global = -3.12472e-15, cumulative = 2.73327e-12
DICPCG:  Solving for p, Initial residual = 0.000100363, Final residual = 9.93723e-08, No Iterations 71
time step continuity errors : sum local = 1.22792e-12, global = -4.59668e-15, cumulative = 2.72867e-12
ExecutionTime = 6.41 s  ClockTime = 13 s

forces forces write:
    sum of forces:
        pressure : (0.0634119 -1.19221e-08 1.72117e-27)
        viscous  : (0.0198975 -1.43725e-09 -4.21558e-21)
        porous   : (0 0 0)
    sum of moments:
        pressure : (-5.21306e-21 -1.98783e-21 3.3119e-19)
        viscous  : (-3.92429e-23 -1.57168e-21 -6.34641e-11)
        porous   : (0 0 0)

forceCoeffs forceCoeffs write:
    Cm    = -1.26928e-09
    Cd    = 1.66619
    Cl    = -2.67187e-07
    Cl(f) = -1.34863e-07
    Cl(r) = -1.32324e-07

Time = 1.96

Courant Number mean: 0.052219 max: 0.276856
smoothSolver:  Solving for Ux, Initial residual = 0.000539341, Final residual = 2.49421e-09, No Iterations 2
smoothSolver:  Solving for Uy, Initial residual = 0.000788264, Final residual = 4.28716e-09, No Iterations 2
DICPCG:  Solving for p, Initial residual = 0.00149384, Final residual = 9.33854e-08, No Iterations 81
time step continuity errors : sum local = 1.15409e-12, global = -3.20298e-17, cumulative = 2.72864e-12
DICPCG:  Solving for p, Initial residual = 8.99787e-05, Final residual = 9.94852e-08, No Iterations 71
time step continuity errors : sum local = 1.23e-12, global = -1.34435e-15, cumulative = 2.72729e-12
ExecutionTime = 6.42 s  ClockTime = 13 s

forces forces write:
    sum of forces:
        pressure : (0.06341 -1.03958e-08 1.15374e-27)
        viscous  : (0.0198896 -1.43461e-09 -4.21349e-21)
        porous   : (0 0 0)
    sum of moments:
        pressure : (-5.21163e-21 -1.98832e-21 -1.25361e-19)
        viscous  : (-3.86354e-23 -1.57128e-21 -6.36363e-11)
        porous   : (0 0 0)

forceCoeffs forceCoeffs write:
    Cm    = -1.27273e-09
    Cd    = 1.66599
    Cl    = -2.36608e-07
    Cl(f) = -1.19577e-07
    Cl(r) = -1.17031e-07

Time = 1.965

Courant Number mean: 0.0522209 max: 0.276786
smoothSolver:  Solving for Ux, Initial residual = 0.00053825, Final residual = 2.48213e-09, No Iterations 2
smoothSolver:  Solving for Uy, Initial residual = 0.00078681, Final residual = 4.27354e-09, No Iterations 2
DICPCG:  Solving for p, Initial residual = 0.00141331, Final residual = 8.26171e-08, No Iterations 82
time step continuity errors : sum local = 1.02164e-12, global = -6.00462e-15, cumulative = 2.72129e-12
DICPCG:  Solving for p, Initial residual = 8.88253e-05, Final residual = 7.9495e-08, No Iterations 72
time step continuity errors : sum local = 9.83494e-13, global = 4.36611e-15, cumulative = 2.72565e-12
ExecutionTime = 6.43 s  ClockTime = 13 s

forces forces write:
    sum of forces:
        pressure : (0.0634057 -1.01739e-08 1.20002e-27)
        viscous  : (0.0198818 -1.43184e-09 -4.21141e-21)
        porous   : (0 0 0)
    sum of moments:
        pressure : (-5.20998e-21 -1.98873e-21 2.69356e-19)
        viscous  : (-3.8032e-23 -1.57088e-21 -6.38149e-11)
        porous   : (0 0 0)

forceCoeffs forceCoeffs write:
    Cm    = -1.2763e-09
    Cd    = 1.66575
    Cl    = -2.32114e-07
    Cl(f) = -1.17334e-07
    Cl(r) = -1.14781e-07

Time = 1.97

Courant Number mean: 0.0522228 max: 0.276716
smoothSolver:  Solving for Ux, Initial residual = 0.000537161, Final residual = 2.47002e-09, No Iterations 2
smoothSolver:  Solving for Uy, Initial residual = 0.0007854, Final residual = 4.25996e-09, No Iterations 2
DICPCG:  Solving for p, Initial residual = 0.00141386, Final residual = 9.92024e-08, No Iterations 81
time step continuity errors : sum local = 1.22756e-12, global = 2.98212e-15, cumulative = 2.72864e-12
DICPCG:  Solving for p, Initial residual = 8.83942e-05, Final residual = 9.9695e-08, No Iterations 71
time step continuity errors : sum local = 1.23426e-12, global = -6.70979e-16, cumulative = 2.72797e-12
ExecutionTime = 6.45 s  ClockTime = 13 s

forces forces write:
    sum of forces:
        pressure : (0.0634015 -1.08895e-08 1.22564e-27)
        viscous  : (0.019874 -1.42912e-09 -4.20933e-21)
        porous   : (0 0 0)
    sum of moments:
        pressure : (-5.20835e-21 -1.98915e-21 -2.83756e-19)
        viscous  : (-3.74314e-23 -1.57048e-21 -6.40142e-11)
        porous   : (0 0 0)

forceCoeffs forceCoeffs write:
    Cm    = -1.28028e-09
    Cd    = 1.66551
    Cl    = -2.46372e-07
    Cl(f) = -1.24466e-07
    Cl(r) = -1.21906e-07

Time = 1.975

Courant Number mean: 0.0522246 max: 0.276646
smoothSolver:  Solving for Ux, Initial residual = 0.000536075, Final residual = 2.45794e-09, No Iterations 2
smoothSolver:  Solving for Uy, Initial residual = 0.000784009, Final residual = 4.24637e-09, No Iterations 2
DICPCG:  Solving for p, Initial residual = 0.0014059, Final residual = 9.85899e-08, No Iterations 81
time step continuity errors : sum local = 1.22083e-12, global = 3.09181e-15, cumulative = 2.73106e-12
DICPCG:  Solving for p, Initial residual = 8.80634e-05, Final residual = 7.76885e-08, No Iterations 72
time step continuity errors : sum local = 9.62493e-13, global = 5.04636e-15, cumulative = 2.7361e-12
ExecutionTime = 6.46 s  ClockTime = 13 s

forces forces write:
    sum of forces:
        pressure : (0.0633972 -9.99782e-09 1.24228e-27)
        viscous  : (0.0198662 -1.42559e-09 -4.20726e-21)
        porous   : (0 0 0)
    sum of moments:
        pressure : (-5.20673e-21 -1.98956e-21 3.57448e-19)
        viscous  : (-3.68334e-23 -1.57009e-21 -6.41939e-11)
        porous   : (0 0 0)

forceCoeffs forceCoeffs write:
    Cm    = -1.28388e-09
    Cd    = 1.66527
    Cl    = -2.28468e-07
    Cl(f) = -1.15518e-07
    Cl(r) = -1.1295e-07

Time = 1.98

Courant Number mean: 0.0522264 max: 0.276576
smoothSolver:  Solving for Ux, Initial residual = 0.000534991, Final residual = 2.44592e-09, No Iterations 2
smoothSolver:  Solving for Uy, Initial residual = 0.000782609, Final residual = 4.23279e-09, No Iterations 2
DICPCG:  Solving for p, Initial residual = 0.00147313, Final residual = 9.82596e-08, No Iterations 81
time step continuity errors : sum local = 1.2176e-12, global = 3.38933e-15, cumulative = 2.73949e-12
DICPCG:  Solving for p, Initial residual = 8.88577e-05, Final residual = 9.89504e-08, No Iterations 71
time step continuity errors : sum local = 1.22677e-12, global = -9.49565e-16, cumulative = 2.73854e-12
ExecutionTime = 6.48 s  ClockTime = 13 s

forces forces write:
    sum of forces:
        pressure : (0.0633931 -1.08149e-08 1.23688e-27)
        viscous  : (0.0198585 -1.42282e-09 -4.2052e-21)
        porous   : (0 0 0)
    sum of moments:
        pressure : (-5.20512e-21 -1.98997e-21 5.69206e-19)
        viscous  : (-3.62382e-23 -1.5697e-21 -6.4401e-11)
        porous   : (0 0 0)

forceCoeffs forceCoeffs write:
    Cm    = -1.28802e-09
    Cd    = 1.66503
    Cl    = -2.44755e-07
    Cl(f) = -1.23666e-07
    Cl(r) = -1.2109e-07

Time = 1.985

Courant Number mean: 0.0522282 max: 0.276507
smoothSolver:  Solving for Ux, Initial residual = 0.000533911, Final residual = 2.43395e-09, No Iterations 2
smoothSolver:  Solving for Uy, Initial residual = 0.000781206, Final residual = 4.21929e-09, No Iterations 2
DICPCG:  Solving for p, Initial residual = 0.00140162, Final residual = 9.43166e-08, No Iterations 81
time step continuity errors : sum local = 1.16957e-12, global = 1.92931e-15, cumulative = 2.74047e-12
DICPCG:  Solving for p, Initial residual = 8.76247e-05, Final residual = 9.83369e-08, No Iterations 71
time step continuity errors : sum local = 1.22004e-12, global = -1.91647e-15, cumulative = 2.73856e-12
ExecutionTime = 6.49 s  ClockTime = 13 s

forces forces write:
    sum of forces:
        pressure : (0.0633891 -1.03333e-08 1.23937e-27)
        viscous  : (0.0198508 -1.4198e-09 -4.20315e-21)
        porous   : (0 0 0)
    sum of moments:
        pressure : (-5.20354e-21 -1.99039e-21 1.7703e-19)
        viscous  : (-3.56456e-23 -1.56931e-21 -6.45791e-11)
        porous   : (0 0 0)

forceCoeffs forceCoeffs write:
    Cm    = -1.29158e-09
    Cd    = 1.6648
    Cl    = -2.35061e-07
    Cl(f) = -1.18822e-07
    Cl(r) = -1.16239e-07

Time = 1.99

Courant Number mean: 0.05223 max: 0.276438
smoothSolver:  Solving for Ux, Initial residual = 0.000532832, Final residual = 2.42207e-09, No Iterations 2
smoothSolver:  Solving for Uy, Initial residual = 0.000779795, Final residual = 4.20586e-09, No Iterations 2
DICPCG:  Solving for p, Initial residual = 0.00145891, Final residual = 9.23676e-08, No Iterations 81
time step continuity errors : sum local = 1.14626e-12, global = 4.68012e-16, cumulative = 2.73902e-12
DICPCG:  Solving for p, Initial residual = 8.82515e-05, Final residual = 9.91109e-08, No Iterations 71
time step continuity errors : sum local = 1.23062e-12, global = -3.10184e-15, cumulative = 2.73592e-12
ExecutionTime = 6.51 s  ClockTime = 13 s

forces forces write:
    sum of forces:
        pressure : (0.0633857 -1.0097e-08 1.22678e-27)
        viscous  : (0.0198432 -1.41667e-09 -4.2011e-21)
        porous   : (0 0 0)
    sum of moments:
        pressure : (-5.20202e-21 -1.99082e-21 3.19331e-19)
        viscous  : (-3.50557e-23 -1.56893e-21 -6.47602e-11)
        porous   : (0 0 0)

forceCoeffs forceCoeffs write:
    Cm    = -1.2952e-09
    Cd    = 1.66458
    Cl    = -2.30273e-07
    Cl(f) = -1.16432e-07
    Cl(r) = -1.13841e-07

Time = 1.995

Courant Number mean: 0.0522318 max: 0.276369
smoothSolver:  Solving for Ux, Initial residual = 0.000531751, Final residual = 2.41024e-09, No Iterations 2
smoothSolver:  Solving for Uy, Initial residual = 0.000778387, Final residual = 4.19235e-09, No Iterations 2
DICPCG:  Solving for p, Initial residual = 0.00153103, Final residual = 8.57755e-08, No Iterations 81
time step continuity errors : sum local = 1.06516e-12, global = -3.42019e-15, cumulative = 2.7325e-12
DICPCG:  Solving for p, Initial residual = 8.87424e-05, Final residual = 9.40111e-08, No Iterations 71
time step continuity errors : sum local = 1.16795e-12, global = -3.8534e-15, cumulative = 2.72865e-12
ExecutionTime = 6.52 s  ClockTime = 13 s

forces forces write:
    sum of forces:
        pressure : (0.0633841 -9.40719e-09 1.1939e-27)
        viscous  : (0.0198356 -1.41318e-09 -4.19907e-21)
        porous   : (0 0 0)
    sum of moments:
        pressure : (-5.20067e-21 -1.9913e-21 1.40607e-19)
        viscous  : (-3.44679e-23 -1.56855e-21 -6.49361e-11)
        porous   : (0 0 0)

forceCoeffs forceCoeffs write:
    Cm    = -1.29872e-09
    Cd    = 1.6644
    Cl    = -2.16407e-07
    Cl(f) = -1.09502e-07
    Cl(r) = -1.06905e-07

Time = 2

Courant Number mean: 0.0522336 max: 0.2763
smoothSolver:  Solving for Ux, Initial residual = 0.000530666, Final residual = 2.39835e-09, No Iterations 2
smoothSolver:  Solving for Uy, Initial residual = 0.000776896, Final residual = 4.17866e-09, No Iterations 2
DICPCG:  Solving for p, Initial residual = 0.00140753, Final residual = 8.95139e-08, No Iterations 88
time step continuity errors : sum local = 1.11226e-12, global = 5.84529e-15, cumulative = 2.73449e-12
DICPCG:  Solving for p, Initial residual = 8.75367e-05, Final residual = 7.79102e-08, No Iterations 72
time step continuity errors : sum local = 9.68495e-13, global = 3.61308e-15, cumulative = 2.73811e-12
ExecutionTime = 6.56 s  ClockTime = 13 s

forces forces write:
    sum of forces:
        pressure : (0.0633768 -9.36867e-09 1.27923e-27)
        viscous  : (0.0198281 -1.41343e-09 -4.19703e-21)
        porous   : (0 0 0)
    sum of moments:
        pressure : (-5.19881e-21 -1.99161e-21 3.81165e-19)
        viscous  : (-3.38846e-23 -1.56817e-21 -6.5091e-11)
        porous   : (0 0 0)

forceCoeffs forceCoeffs write:
    Cm    = -1.30182e-09
    Cd    = 1.6641
    Cl    = -2.15642e-07
    Cl(f) = -1.09123e-07
    Cl(r) = -1.06519e-07

End

