/*---------------------------------------------------------------------------*\
  =========                 |
  \\      /  F ield         | OpenFOAM: The Open Source CFD Toolbox
   \\    /   O peration     | Website:  https://openfoam.org
    \\  /    A nd           | Version:  7
     \\/     M anipulation  |
\*---------------------------------------------------------------------------*/
Build  : 7
Exec   : blockMesh
Date   : Mar 21 2024
Time   : 19:52:50
Host   : "c201-029.frontera.tacc.utexas.edu"
PID    : 249194
I/O    : uncollated
Case   : /work2/09043/kjm24/frontera/COE347/circular-cylinder
nProcs : 1
sigFpe : Enabling floating point exception trapping (FOAM_SIGFPE).
fileModificationChecking : Monitoring run-time modified files using timeStampMaster (fileModificationSkew 10)
allowSystemOperations : Allowing user-supplied system call operations

// * * * * * * * * * * * * * * * * * * * * * * * * * * * * * * * * * * * * * //
Create time

Creating block mesh from
    "/work2/09043/kjm24/frontera/COE347/circular-cylinder/system/blockMeshDict"
Creating block edges
No non-planar block faces defined
Creating topology blocks
Creating topology patches

Creating block mesh topology
--> FOAM Warning : 
    From function Foam::polyMesh::polyMesh(const Foam::IOobject &, Foam::Field<Foam::Vector<double>> &&, const Foam::List<Foam::cellShape> &, const Foam::List<Foam::List<Foam::face>> &, const Foam::List<Foam::word> &, const Foam::PtrList<Foam::dictionary> &, const Foam::word &, const Foam::word &, bool)
    in file meshes/polyMesh/polyMeshFromShapeMesh.C at line 873
    Found 40 undefined faces in mesh; adding to default patch.

Check topology

	Basic statistics
		Number of internal faces : 28
		Number of boundary faces : 64
		Number of defined boundary faces : 64
		Number of undefined boundary faces : 0
	Checking patch -> block consistency

Creating block offsets
Creating merge list .

Creating polyMesh from blockMesh
Creating points with scale 1
    Block 0 cell size :
        i : 0.00445035 .. 0.0267021
        j : 0.0130896 .. 0.0130896 0.0132061 .. 0.0132061 0.0130896 .. 0.0130896 0.0132061 .. 0.0132061 
        k : 0.1
    Block 1 cell size :
        i : 0.00445035 .. 0.0267021
        j : 0.0130896 .. 0.0130896 0.0132061 .. 0.0132061 0.0130896 .. 0.0130896 0.0132061 .. 0.0132061 
        k : 0.1
    Block 2 cell size :
        i : 0.00445035 .. 0.0267021
        j : 0.0130896 .. 0.0130896 0.0132061 .. 0.0132061 0.0130896 .. 0.0130896 0.0132061 .. 0.0132061 
        k : 0.1
    Block 3 cell size :
        i : 0.00445035 .. 0.0267021
        j : 0.0130896 .. 0.0130896 0.0132061 .. 0.0132061 0.0130896 .. 0.0130896 0.0132061 .. 0.0132061 
        k : 0.1
    Block 4 cell size :
        i : 0.00445035 .. 0.0267021
        j : 0.0130896 .. 0.0130896 0.0132061 .. 0.0132061 0.0130896 .. 0.0130896 0.0132061 .. 0.0132061 
        k : 0.1
    Block 5 cell size :
        i : 0.00445035 .. 0.0267021
        j : 0.0130896 .. 0.0130896 0.0132061 .. 0.0132061 0.0130896 .. 0.0130896 0.0132061 .. 0.0132061 
        k : 0.1
    Block 6 cell size :
        i : 0.00445035 .. 0.0267021
        j : 0.0130896 .. 0.0130896 0.0132061 .. 0.0132061 0.0130896 .. 0.0130896 0.0132061 .. 0.0132061 
        k : 0.1
    Block 7 cell size :
        i : 0.00445035 .. 0.0267021
        j : 0.0130896 .. 0.0130896 0.0132061 .. 0.0132061 0.0130896 .. 0.0130896 0.0132061 .. 0.0132061 
        k : 0.1
    Block 8 cell size :
        i : 0.206256 .. 0.825025 0.206264 .. 0.825056 0.206256 .. 0.825025 0.206264 .. 0.825056 
        j : 0.0261792 .. 0.0261792 0.0261194 .. 0.0259689 0.0261792 .. 0.0261792 0.0261194 .. 0.0259689 
        k : 0.1
    Block 9 cell size :
        i : 0.212969 .. 0.851874
        j : 0.212969 .. 0.851874
        k : 0.1
    Block 10 cell size :
        i : 0.0261792 .. 0.0261792 0.0261194 .. 0.0259689 0.0261792 .. 0.0261792 0.0261194 .. 0.0259689 
        j : 0.206256 .. 0.825025 0.206264 .. 0.825056 0.206256 .. 0.825025 0.206264 .. 0.825056 
        k : 0.1
    Block 11 cell size :
        i : 0.0261792 .. 0.0261792 0.0259689 .. 0.0261194 0.0261792 .. 0.0261792 0.0259689 .. 0.0261194 
        j : 0.212969 .. 0.851874 0.21255 .. 0.8502 0.212969 .. 0.851874 0.21255 .. 0.8502 
        k : 0.1
    Block 12 cell size :
        i : 0.598303 .. 0.149576
        j : 0.212969 .. 0.851874
        k : 0.1
    Block 13 cell size :
        i : 0.545086 .. 0.136271 0.545148 .. 0.136287 0.545086 .. 0.136271 0.545148 .. 0.136287 
        j : 0.0235702 .. 0.0235702 0.0240439 .. 0.0229362 0.0235702 .. 0.0235702 0.0240439 .. 0.0229362 
        k : 0.1
    Block 14 cell size :
        i : 0.598303 .. 0.149576 0.594985 .. 0.148746 0.598303 .. 0.149576 0.594985 .. 0.148746 
        j : 0.0235702 .. 0.0235702 0.0229362 .. 0.0240439 0.0235702 .. 0.0235702 0.0229362 .. 0.0240439 
        k : 0.1
    Block 15 cell size :
        i : 0.598303 .. 0.149576
        j : 0.851874 .. 0.212969
        k : 0.1
    Block 16 cell size :
        i : 0.0235702 .. 0.0235702 0.0231891 .. 0.0238092 0.0235702 .. 0.0235702 0.0231891 .. 0.0238092 
        j : 0.851874 .. 0.212969 0.8502 .. 0.21255 0.851874 .. 0.212969 0.8502 .. 0.21255 
        k : 0.1
    Block 17 cell size :
        i : 0.0235702 .. 0.0235702 0.0238092 .. 0.0231891 0.0235702 .. 0.0235702 0.0238092 .. 0.0231891 
        j : 0.825025 .. 0.206256 0.825056 .. 0.206264 0.825025 .. 0.206256 0.825056 .. 0.206264 
        k : 0.1
    Block 18 cell size :
        i : 0.212969 .. 0.851874
        j : 0.851874 .. 0.212969
        k : 0.1
    Block 19 cell size :
        i : 0.212969 .. 0.851874 0.21255 .. 0.8502 0.212969 .. 0.851874 0.21255 .. 0.8502 
        j : 0.0261792 .. 0.0261792 0.0259689 .. 0.0261194 0.0261792 .. 0.0261792 0.0259689 .. 0.0261194 
        k : 0.1
Creating cells
Creating patches

There are no merge patch pairs edges

Writing polyMesh
----------------
Mesh Information
----------------
  boundingBox: (-4 -10 -0.05) (10 10 0.05)
  nPoints: 30620
  nCells: 15000
  nFaces: 60310
  nInternalFaces: 29690
----------------
Patches
----------------
  patch 0 (start: 29690 size: 100) name: inlet
  patch 1 (start: 29790 size: 100) name: outlet
  patch 2 (start: 29890 size: 240) name: cylinder
  patch 3 (start: 30130 size: 90) name: top
  patch 4 (start: 30220 size: 90) name: bottom
  patch 5 (start: 30310 size: 30000) name: defaultFaces

End

