/*---------------------------------------------------------------------------*\
  =========                 |
  \\      /  F ield         | OpenFOAM: The Open Source CFD Toolbox
   \\    /   O peration     | Website:  https://openfoam.org
    \\  /    A nd           | Version:  7
     \\/     M anipulation  |
\*---------------------------------------------------------------------------*/
Build  : 7
Exec   : blockMesh
Date   : Mar 14 2024
Time   : 19:47:37
Host   : "login4.frontera.tacc.utexas.edu"
PID    : 3268
I/O    : uncollated
Case   : /work2/09043/kjm24/frontera/COE347/circular-cylinder
nProcs : 1
sigFpe : Enabling floating point exception trapping (FOAM_SIGFPE).
fileModificationChecking : Monitoring run-time modified files using timeStampMaster (fileModificationSkew 10)
allowSystemOperations : Allowing user-supplied system call operations

// * * * * * * * * * * * * * * * * * * * * * * * * * * * * * * * * * * * * * //
Create time

Creating block mesh from
    "/work2/09043/kjm24/frontera/COE347/circular-cylinder/system/blockMeshDict"
Creating block edges
No non-planar block faces defined
Creating topology blocks
Creating topology patches

Creating block mesh topology
--> FOAM Warning : 
    From function Foam::polyMesh::polyMesh(const Foam::IOobject &, Foam::Field<Foam::Vector<double>> &&, const Foam::List<Foam::cellShape> &, const Foam::List<Foam::List<Foam::face>> &, const Foam::List<Foam::word> &, const Foam::PtrList<Foam::dictionary> &, const Foam::word &, const Foam::word &, bool)
    in file meshes/polyMesh/polyMeshFromShapeMesh.C at line 873
    Found 40 undefined faces in mesh; adding to default patch.

Check topology

	Basic statistics
		Number of internal faces : 28
		Number of boundary faces : 64
		Number of defined boundary faces : 64
		Number of undefined boundary faces : 0
	Checking patch -> block consistency

Creating block offsets
Creating merge list .

Creating polyMesh from blockMesh
Creating points with scale 1
    Block 0 cell size :
        i : 0.0690099 .. 0.13802
        j : 0.0196337 .. 0.0196337 0.0223435 .. 0.0223435 0.0196337 .. 0.0196337 0.0223435 .. 0.0223435 
        k : 0.1
    Block 1 cell size :
        i : 0.0690099 .. 0.13802
        j : 0.0196337 .. 0.0196337 0.0223435 .. 0.0223435 0.0196337 .. 0.0196337 0.0223435 .. 0.0223435 
        k : 0.1
    Block 2 cell size :
        i : 0.0690099 .. 0.13802
        j : 0.0196337 .. 0.0196337 0.0223435 .. 0.0223435 0.0196337 .. 0.0196337 0.0223435 .. 0.0223435 
        k : 0.1
    Block 3 cell size :
        i : 0.0690099 .. 0.13802
        j : 0.0196337 .. 0.0196337 0.0223435 .. 0.0223435 0.0196337 .. 0.0196337 0.0223435 .. 0.0223435 
        k : 0.1
    Block 4 cell size :
        i : 0.0690099 .. 0.13802
        j : 0.0196337 .. 0.0196337 0.0223435 .. 0.0223435 0.0196337 .. 0.0196337 0.0223435 .. 0.0223435 
        k : 0.1
    Block 5 cell size :
        i : 0.0690099 .. 0.13802
        j : 0.0196337 .. 0.0196337 0.0223435 .. 0.0223435 0.0196337 .. 0.0196337 0.0223435 .. 0.0223435 
        k : 0.1
    Block 6 cell size :
        i : 0.0690099 .. 0.13802
        j : 0.0196337 .. 0.0196337 0.0223435 .. 0.0223435 0.0196337 .. 0.0196337 0.0223435 .. 0.0223435 
        k : 0.1
    Block 7 cell size :
        i : 0.0690099 .. 0.13802
        j : 0.0196337 .. 0.0196337 0.0223435 .. 0.0223435 0.0196337 .. 0.0196337 0.0223435 .. 0.0223435 
        k : 0.1
    Block 8 cell size :
        i : 0.0572934 .. 0.229174 0.0573201 .. 0.22928 0.0572934 .. 0.229174 0.0573201 .. 0.22928 
        j : 0.0589011 .. 0.0589011 0.0587664 .. 0.0584334 0.0589011 .. 0.0589011 0.0587664 .. 0.0584334 
        k : 0.1
    Block 9 cell size :
        i : 0.0673619 .. 0.269448
        j : 0.0673619 .. 0.269448
        k : 0.1
    Block 10 cell size :
        i : 0.0589011 .. 0.0589011 0.0587664 .. 0.0584334 0.0589011 .. 0.0589011 0.0587664 .. 0.0584334 
        j : 0.0572934 .. 0.229174 0.0573201 .. 0.22928 0.0572934 .. 0.229174 0.0573201 .. 0.22928 
        k : 0.1
    Block 11 cell size :
        i : 0.0589011 .. 0.0589011 0.0584334 .. 0.0587664 0.0589011 .. 0.0589011 0.0584334 .. 0.0587664 
        j : 0.0673619 .. 0.269448 0.0664268 .. 0.265707 0.0673619 .. 0.269448 0.0664268 .. 0.265707 
        k : 0.1
    Block 12 cell size :
        i : 0.534064 .. 0.133516
        j : 0.0673619 .. 0.269448
        k : 0.1
    Block 13 cell size :
        i : 0.454238 .. 0.11356 0.45445 .. 0.113612 0.454238 .. 0.11356 0.45445 .. 0.113612 
        j : 0.053033 .. 0.053033 0.0540976 .. 0.0516472 0.053033 .. 0.053033 0.0540976 .. 0.0516472 
        k : 0.1
    Block 14 cell size :
        i : 0.534064 .. 0.133516 0.52665 .. 0.131663 0.534064 .. 0.133516 0.52665 .. 0.131663 
        j : 0.053033 .. 0.053033 0.0516472 .. 0.0540976 0.053033 .. 0.053033 0.0516472 .. 0.0540976 
        k : 0.1
    Block 15 cell size :
        i : 0.534064 .. 0.133516
        j : 0.269448 .. 0.0673619
        k : 0.1
    Block 16 cell size :
        i : 0.053033 .. 0.053033 0.052198 .. 0.05357 0.053033 .. 0.053033 0.052198 .. 0.05357 
        j : 0.269448 .. 0.0673619 0.265707 .. 0.0664268 0.269448 .. 0.0673619 0.265707 .. 0.0664268 
        k : 0.1
    Block 17 cell size :
        i : 0.053033 .. 0.053033 0.05357 .. 0.052198 0.053033 .. 0.053033 0.05357 .. 0.052198 
        j : 0.229174 .. 0.0572934 0.22928 .. 0.0573201 0.229174 .. 0.0572934 0.22928 .. 0.0573201 
        k : 0.1
    Block 18 cell size :
        i : 0.0673619 .. 0.269448
        j : 0.269448 .. 0.0673619
        k : 0.1
    Block 19 cell size :
        i : 0.0673619 .. 0.269448 0.0664268 .. 0.265707 0.0673619 .. 0.269448 0.0664268 .. 0.265707 
        j : 0.0589011 .. 0.0589011 0.0584334 .. 0.0587664 0.0589011 .. 0.0589011 0.0584334 .. 0.0587664 
        k : 0.1
Creating cells
Creating patches

There are no merge patch pairs edges

Writing polyMesh
----------------
Mesh Information
----------------
  boundingBox: (-4 -4 -0.05) (4 4 0.05)
  nPoints: 11660
  nCells: 5600
  nFaces: 22630
  nInternalFaces: 10970
----------------
Patches
----------------
  patch 0 (start: 10970 size: 80) name: inlet
  patch 1 (start: 11050 size: 80) name: outlet
  patch 2 (start: 11130 size: 160) name: cylinder
  patch 3 (start: 11290 size: 70) name: top
  patch 4 (start: 11360 size: 70) name: bottom
  patch 5 (start: 11430 size: 11200) name: defaultFaces

End

