/*---------------------------------------------------------------------------*\
  =========                 |
  \\      /  F ield         | OpenFOAM: The Open Source CFD Toolbox
   \\    /   O peration     | Website:  https://openfoam.org
    \\  /    A nd           | Version:  7
     \\/     M anipulation  |
\*---------------------------------------------------------------------------*/
Build  : 7
Exec   : decomposePar
Date   : May 02 2024
Time   : 16:19:27
Host   : "c202-029.frontera.tacc.utexas.edu"
PID    : 113146
I/O    : uncollated
Case   : /work2/09043/kjm24/frontera/COE347/FPTests
nProcs : 1
sigFpe : Enabling floating point exception trapping (FOAM_SIGFPE).
fileModificationChecking : Monitoring run-time modified files using timeStampMaster (fileModificationSkew 10)
allowSystemOperations : Allowing user-supplied system call operations

// * * * * * * * * * * * * * * * * * * * * * * * * * * * * * * * * * * * * * //
Create time



Decomposing mesh region0

Create mesh

Calculating distribution of cells
 Foam::decompositionMethod::New 
{
    numberOfSubdomains 448;
    method          hierarchical;
    simpleCoeffs
    {
        n               ( 28 16 1 );
        delta           0.001;
    }
    hierarchicalCoeffs
    {
        n               ( 28 16 1 );
        delta           0.001;
        order           xyz;
    }
}

Selecting decompositionMethod hierarchical

Finished decomposition in 0.01 s

Calculating original mesh data

Distributing cells to processors

Distributing faces to processors

Distributing points to processors

Constructing processor meshes

Processor 0
    Number of cells = 68
    Number of faces shared with processor 1 = 3
    Number of faces shared with processor 28 = 22
    Number of processor patches = 2
    Number of processor faces = 25
    Number of boundary faces = 140

Processor 1
    Number of cells = 68
    Number of faces shared with processor 0 = 3
    Number of faces shared with processor 2 = 3
    Number of faces shared with processor 28 = 1
    Number of faces shared with processor 29 = 22
    Number of processor patches = 4
    Number of processor faces = 29
    Number of boundary faces = 136

Processor 2
    Number of cells = 68
    Number of faces shared with processor 1 = 3
    Number of faces shared with processor 3 = 3
    Number of faces shared with processor 29 = 2
    Number of faces shared with processor 30 = 22
    Number of processor patches = 4
    Number of processor faces = 30
    Number of boundary faces = 136

Processor 3
    Number of cells = 68
    Number of faces shared with processor 2 = 3
    Number of faces shared with processor 4 = 3
    Number of faces shared with processor 30 = 1
    Number of faces shared with processor 31 = 22
    Number of processor patches = 4
    Number of processor faces = 29
    Number of boundary faces = 136

Processor 4
    Number of cells = 68
    Number of faces shared with processor 3 = 3
    Number of faces shared with processor 5 = 3
    Number of faces shared with processor 31 = 1
    Number of faces shared with processor 32 = 23
    Number of processor patches = 4
    Number of processor faces = 30
    Number of boundary faces = 136

Processor 5
    Number of cells = 68
    Number of faces shared with processor 4 = 3
    Number of faces shared with processor 6 = 3
    Number of faces shared with processor 32 = 1
    Number of faces shared with processor 33 = 22
    Number of processor patches = 4
    Number of processor faces = 29
    Number of boundary faces = 136

Processor 6
    Number of cells = 68
    Number of faces shared with processor 5 = 3
    Number of faces shared with processor 7 = 3
    Number of faces shared with processor 33 = 1
    Number of faces shared with processor 34 = 23
    Number of processor patches = 4
    Number of processor faces = 30
    Number of boundary faces = 136

Processor 7
    Number of cells = 68
    Number of faces shared with processor 6 = 3
    Number of faces shared with processor 8 = 3
    Number of faces shared with processor 34 = 1
    Number of faces shared with processor 35 = 22
    Number of processor patches = 4
    Number of processor faces = 29
    Number of boundary faces = 136

Processor 8
    Number of cells = 68
    Number of faces shared with processor 7 = 3
    Number of faces shared with processor 9 = 3
    Number of faces shared with processor 35 = 1
    Number of faces shared with processor 36 = 23
    Number of processor patches = 4
    Number of processor faces = 30
    Number of boundary faces = 136

Processor 9
    Number of cells = 68
    Number of faces shared with processor 8 = 3
    Number of faces shared with processor 10 = 3
    Number of faces shared with processor 36 = 1
    Number of faces shared with processor 37 = 22
    Number of processor patches = 4
    Number of processor faces = 29
    Number of boundary faces = 136

Processor 10
    Number of cells = 68
    Number of faces shared with processor 9 = 3
    Number of faces shared with processor 11 = 3
    Number of faces shared with processor 37 = 1
    Number of faces shared with processor 38 = 23
    Number of processor patches = 4
    Number of processor faces = 30
    Number of boundary faces = 136

Processor 11
    Number of cells = 68
    Number of faces shared with processor 10 = 3
    Number of faces shared with processor 12 = 3
    Number of faces shared with processor 38 = 1
    Number of faces shared with processor 39 = 22
    Number of processor patches = 4
    Number of processor faces = 29
    Number of boundary faces = 136

Processor 12
    Number of cells = 68
    Number of faces shared with processor 11 = 3
    Number of faces shared with processor 13 = 3
    Number of faces shared with processor 39 = 1
    Number of faces shared with processor 40 = 23
    Number of processor patches = 4
    Number of processor faces = 30
    Number of boundary faces = 136

Processor 13
    Number of cells = 68
    Number of faces shared with processor 12 = 3
    Number of faces shared with processor 14 = 3
    Number of faces shared with processor 40 = 1
    Number of faces shared with processor 41 = 22
    Number of processor patches = 4
    Number of processor faces = 29
    Number of boundary faces = 136

Processor 14
    Number of cells = 68
    Number of faces shared with processor 13 = 3
    Number of faces shared with processor 15 = 3
    Number of faces shared with processor 41 = 1
    Number of faces shared with processor 42 = 23
    Number of processor patches = 4
    Number of processor faces = 30
    Number of boundary faces = 136

Processor 15
    Number of cells = 68
    Number of faces shared with processor 14 = 3
    Number of faces shared with processor 16 = 3
    Number of faces shared with processor 42 = 1
    Number of faces shared with processor 43 = 22
    Number of processor patches = 4
    Number of processor faces = 29
    Number of boundary faces = 136

Processor 16
    Number of cells = 68
    Number of faces shared with processor 15 = 3
    Number of faces shared with processor 17 = 3
    Number of faces shared with processor 43 = 1
    Number of faces shared with processor 44 = 23
    Number of processor patches = 4
    Number of processor faces = 30
    Number of boundary faces = 136

Processor 17
    Number of cells = 68
    Number of faces shared with processor 16 = 3
    Number of faces shared with processor 18 = 3
    Number of faces shared with processor 44 = 1
    Number of faces shared with processor 45 = 22
    Number of processor patches = 4
    Number of processor faces = 29
    Number of boundary faces = 136

Processor 18
    Number of cells = 68
    Number of faces shared with processor 17 = 3
    Number of faces shared with processor 19 = 3
    Number of faces shared with processor 45 = 1
    Number of faces shared with processor 46 = 23
    Number of processor patches = 4
    Number of processor faces = 30
    Number of boundary faces = 136

Processor 19
    Number of cells = 68
    Number of faces shared with processor 18 = 3
    Number of faces shared with processor 20 = 3
    Number of faces shared with processor 46 = 1
    Number of faces shared with processor 47 = 22
    Number of processor patches = 4
    Number of processor faces = 29
    Number of boundary faces = 136

Processor 20
    Number of cells = 68
    Number of faces shared with processor 19 = 3
    Number of faces shared with processor 21 = 3
    Number of faces shared with processor 47 = 1
    Number of faces shared with processor 48 = 23
    Number of processor patches = 4
    Number of processor faces = 30
    Number of boundary faces = 136

Processor 21
    Number of cells = 68
    Number of faces shared with processor 20 = 3
    Number of faces shared with processor 22 = 3
    Number of faces shared with processor 48 = 1
    Number of faces shared with processor 49 = 22
    Number of processor patches = 4
    Number of processor faces = 29
    Number of boundary faces = 136

Processor 22
    Number of cells = 68
    Number of faces shared with processor 21 = 3
    Number of faces shared with processor 23 = 3
    Number of faces shared with processor 49 = 1
    Number of faces shared with processor 50 = 23
    Number of processor patches = 4
    Number of processor faces = 30
    Number of boundary faces = 136

Processor 23
    Number of cells = 68
    Number of faces shared with processor 22 = 3
    Number of faces shared with processor 24 = 3
    Number of faces shared with processor 50 = 1
    Number of faces shared with processor 51 = 22
    Number of processor patches = 4
    Number of processor faces = 29
    Number of boundary faces = 136

Processor 24
    Number of cells = 68
    Number of faces shared with processor 23 = 3
    Number of faces shared with processor 25 = 3
    Number of faces shared with processor 51 = 1
    Number of faces shared with processor 52 = 23
    Number of processor patches = 4
    Number of processor faces = 30
    Number of boundary faces = 136

Processor 25
    Number of cells = 68
    Number of faces shared with processor 24 = 3
    Number of faces shared with processor 26 = 3
    Number of faces shared with processor 52 = 1
    Number of faces shared with processor 53 = 22
    Number of processor patches = 4
    Number of processor faces = 29
    Number of boundary faces = 136

Processor 26
    Number of cells = 68
    Number of faces shared with processor 25 = 3
    Number of faces shared with processor 27 = 3
    Number of faces shared with processor 53 = 1
    Number of faces shared with processor 54 = 23
    Number of processor patches = 4
    Number of processor faces = 30
    Number of boundary faces = 136

Processor 27
    Number of cells = 70
    Number of faces shared with processor 26 = 3
    Number of faces shared with processor 54 = 1
    Number of faces shared with processor 55 = 23
    Number of processor patches = 3
    Number of processor faces = 27
    Number of boundary faces = 143

Processor 28
    Number of cells = 68
    Number of faces shared with processor 0 = 22
    Number of faces shared with processor 1 = 1
    Number of faces shared with processor 29 = 2
    Number of faces shared with processor 56 = 22
    Number of processor patches = 4
    Number of processor faces = 47
    Number of boundary faces = 139

Processor 29
    Number of cells = 68
    Number of faces shared with processor 1 = 22
    Number of faces shared with processor 2 = 2
    Number of faces shared with processor 28 = 2
    Number of faces shared with processor 30 = 2
    Number of faces shared with processor 56 = 1
    Number of faces shared with processor 57 = 23
    Number of processor patches = 6
    Number of processor faces = 52
    Number of boundary faces = 136

Processor 30
    Number of cells = 68
    Number of faces shared with processor 2 = 22
    Number of faces shared with processor 3 = 1
    Number of faces shared with processor 29 = 2
    Number of faces shared with processor 31 = 2
    Number of faces shared with processor 57 = 1
    Number of faces shared with processor 58 = 22
    Number of processor patches = 6
    Number of processor faces = 50
    Number of boundary faces = 136

Processor 31
    Number of cells = 68
    Number of faces shared with processor 3 = 22
    Number of faces shared with processor 4 = 1
    Number of faces shared with processor 30 = 2
    Number of faces shared with processor 32 = 2
    Number of faces shared with processor 58 = 1
    Number of faces shared with processor 59 = 22
    Number of processor patches = 6
    Number of processor faces = 50
    Number of boundary faces = 136

Processor 32
    Number of cells = 68
    Number of faces shared with processor 4 = 23
    Number of faces shared with processor 5 = 1
    Number of faces shared with processor 31 = 2
    Number of faces shared with processor 33 = 2
    Number of faces shared with processor 59 = 2
    Number of faces shared with processor 60 = 22
    Number of processor patches = 6
    Number of processor faces = 52
    Number of boundary faces = 136

Processor 33
    Number of cells = 68
    Number of faces shared with processor 5 = 22
    Number of faces shared with processor 6 = 1
    Number of faces shared with processor 32 = 2
    Number of faces shared with processor 34 = 2
    Number of faces shared with processor 60 = 1
    Number of faces shared with processor 61 = 22
    Number of processor patches = 6
    Number of processor faces = 50
    Number of boundary faces = 136

Processor 34
    Number of cells = 68
    Number of faces shared with processor 6 = 23
    Number of faces shared with processor 7 = 1
    Number of faces shared with processor 33 = 2
    Number of faces shared with processor 35 = 2
    Number of faces shared with processor 61 = 1
    Number of faces shared with processor 62 = 23
    Number of processor patches = 6
    Number of processor faces = 52
    Number of boundary faces = 136

Processor 35
    Number of cells = 68
    Number of faces shared with processor 7 = 22
    Number of faces shared with processor 8 = 1
    Number of faces shared with processor 34 = 2
    Number of faces shared with processor 36 = 2
    Number of faces shared with processor 62 = 1
    Number of faces shared with processor 63 = 22
    Number of processor patches = 6
    Number of processor faces = 50
    Number of boundary faces = 136

Processor 36
    Number of cells = 68
    Number of faces shared with processor 8 = 23
    Number of faces shared with processor 9 = 1
    Number of faces shared with processor 35 = 2
    Number of faces shared with processor 37 = 2
    Number of faces shared with processor 63 = 1
    Number of faces shared with processor 64 = 23
    Number of processor patches = 6
    Number of processor faces = 52
    Number of boundary faces = 136

Processor 37
    Number of cells = 68
    Number of faces shared with processor 9 = 22
    Number of faces shared with processor 10 = 1
    Number of faces shared with processor 36 = 2
    Number of faces shared with processor 38 = 2
    Number of faces shared with processor 64 = 1
    Number of faces shared with processor 65 = 22
    Number of processor patches = 6
    Number of processor faces = 50
    Number of boundary faces = 136

Processor 38
    Number of cells = 68
    Number of faces shared with processor 10 = 23
    Number of faces shared with processor 11 = 1
    Number of faces shared with processor 37 = 2
    Number of faces shared with processor 39 = 2
    Number of faces shared with processor 65 = 1
    Number of faces shared with processor 66 = 23
    Number of processor patches = 6
    Number of processor faces = 52
    Number of boundary faces = 136

Processor 39
    Number of cells = 68
    Number of faces shared with processor 11 = 22
    Number of faces shared with processor 12 = 1
    Number of faces shared with processor 38 = 2
    Number of faces shared with processor 40 = 2
    Number of faces shared with processor 66 = 1
    Number of faces shared with processor 67 = 22
    Number of processor patches = 6
    Number of processor faces = 50
    Number of boundary faces = 136

Processor 40
    Number of cells = 68
    Number of faces shared with processor 12 = 23
    Number of faces shared with processor 13 = 1
    Number of faces shared with processor 39 = 2
    Number of faces shared with processor 41 = 2
    Number of faces shared with processor 67 = 1
    Number of faces shared with processor 68 = 23
    Number of processor patches = 6
    Number of processor faces = 52
    Number of boundary faces = 136

Processor 41
    Number of cells = 68
    Number of faces shared with processor 13 = 22
    Number of faces shared with processor 14 = 1
    Number of faces shared with processor 40 = 2
    Number of faces shared with processor 42 = 2
    Number of faces shared with processor 68 = 1
    Number of faces shared with processor 69 = 22
    Number of processor patches = 6
    Number of processor faces = 50
    Number of boundary faces = 136

Processor 42
    Number of cells = 68
    Number of faces shared with processor 14 = 23
    Number of faces shared with processor 15 = 1
    Number of faces shared with processor 41 = 2
    Number of faces shared with processor 43 = 2
    Number of faces shared with processor 69 = 1
    Number of faces shared with processor 70 = 23
    Number of processor patches = 6
    Number of processor faces = 52
    Number of boundary faces = 136

Processor 43
    Number of cells = 68
    Number of faces shared with processor 15 = 22
    Number of faces shared with processor 16 = 1
    Number of faces shared with processor 42 = 2
    Number of faces shared with processor 44 = 2
    Number of faces shared with processor 70 = 1
    Number of faces shared with processor 71 = 22
    Number of processor patches = 6
    Number of processor faces = 50
    Number of boundary faces = 136

Processor 44
    Number of cells = 68
    Number of faces shared with processor 16 = 23
    Number of faces shared with processor 17 = 1
    Number of faces shared with processor 43 = 2
    Number of faces shared with processor 45 = 2
    Number of faces shared with processor 71 = 1
    Number of faces shared with processor 72 = 23
    Number of processor patches = 6
    Number of processor faces = 52
    Number of boundary faces = 136

Processor 45
    Number of cells = 68
    Number of faces shared with processor 17 = 22
    Number of faces shared with processor 18 = 1
    Number of faces shared with processor 44 = 2
    Number of faces shared with processor 46 = 2
    Number of faces shared with processor 72 = 1
    Number of faces shared with processor 73 = 22
    Number of processor patches = 6
    Number of processor faces = 50
    Number of boundary faces = 136

Processor 46
    Number of cells = 68
    Number of faces shared with processor 18 = 23
    Number of faces shared with processor 19 = 1
    Number of faces shared with processor 45 = 2
    Number of faces shared with processor 47 = 2
    Number of faces shared with processor 73 = 1
    Number of faces shared with processor 74 = 23
    Number of processor patches = 6
    Number of processor faces = 52
    Number of boundary faces = 136

Processor 47
    Number of cells = 68
    Number of faces shared with processor 19 = 22
    Number of faces shared with processor 20 = 1
    Number of faces shared with processor 46 = 2
    Number of faces shared with processor 48 = 2
    Number of faces shared with processor 74 = 1
    Number of faces shared with processor 75 = 22
    Number of processor patches = 6
    Number of processor faces = 50
    Number of boundary faces = 136

Processor 48
    Number of cells = 68
    Number of faces shared with processor 20 = 23
    Number of faces shared with processor 21 = 1
    Number of faces shared with processor 47 = 2
    Number of faces shared with processor 49 = 2
    Number of faces shared with processor 75 = 1
    Number of faces shared with processor 76 = 23
    Number of processor patches = 6
    Number of processor faces = 52
    Number of boundary faces = 136

Processor 49
    Number of cells = 68
    Number of faces shared with processor 21 = 22
    Number of faces shared with processor 22 = 1
    Number of faces shared with processor 48 = 2
    Number of faces shared with processor 50 = 2
    Number of faces shared with processor 76 = 1
    Number of faces shared with processor 77 = 22
    Number of processor patches = 6
    Number of processor faces = 50
    Number of boundary faces = 136

Processor 50
    Number of cells = 68
    Number of faces shared with processor 22 = 23
    Number of faces shared with processor 23 = 1
    Number of faces shared with processor 49 = 2
    Number of faces shared with processor 51 = 2
    Number of faces shared with processor 77 = 1
    Number of faces shared with processor 78 = 23
    Number of processor patches = 6
    Number of processor faces = 52
    Number of boundary faces = 136

Processor 51
    Number of cells = 68
    Number of faces shared with processor 23 = 22
    Number of faces shared with processor 24 = 1
    Number of faces shared with processor 50 = 2
    Number of faces shared with processor 52 = 2
    Number of faces shared with processor 78 = 1
    Number of faces shared with processor 79 = 22
    Number of processor patches = 6
    Number of processor faces = 50
    Number of boundary faces = 136

Processor 52
    Number of cells = 68
    Number of faces shared with processor 24 = 23
    Number of faces shared with processor 25 = 1
    Number of faces shared with processor 51 = 2
    Number of faces shared with processor 53 = 2
    Number of faces shared with processor 79 = 1
    Number of faces shared with processor 80 = 23
    Number of processor patches = 6
    Number of processor faces = 52
    Number of boundary faces = 136

Processor 53
    Number of cells = 68
    Number of faces shared with processor 25 = 22
    Number of faces shared with processor 26 = 1
    Number of faces shared with processor 52 = 2
    Number of faces shared with processor 54 = 2
    Number of faces shared with processor 80 = 1
    Number of faces shared with processor 81 = 22
    Number of processor patches = 6
    Number of processor faces = 50
    Number of boundary faces = 136

Processor 54
    Number of cells = 68
    Number of faces shared with processor 26 = 23
    Number of faces shared with processor 27 = 1
    Number of faces shared with processor 53 = 2
    Number of faces shared with processor 55 = 2
    Number of faces shared with processor 81 = 1
    Number of faces shared with processor 82 = 23
    Number of processor patches = 6
    Number of processor faces = 52
    Number of boundary faces = 136

Processor 55
    Number of cells = 70
    Number of faces shared with processor 27 = 23
    Number of faces shared with processor 54 = 2
    Number of faces shared with processor 82 = 1
    Number of faces shared with processor 83 = 23
    Number of processor patches = 4
    Number of processor faces = 49
    Number of boundary faces = 143

Processor 56
    Number of cells = 68
    Number of faces shared with processor 28 = 22
    Number of faces shared with processor 29 = 1
    Number of faces shared with processor 57 = 2
    Number of faces shared with processor 84 = 22
    Number of processor patches = 4
    Number of processor faces = 47
    Number of boundary faces = 139

Processor 57
    Number of cells = 68
    Number of faces shared with processor 29 = 23
    Number of faces shared with processor 30 = 1
    Number of faces shared with processor 56 = 2
    Number of faces shared with processor 58 = 2
    Number of faces shared with processor 84 = 1
    Number of faces shared with processor 85 = 23
    Number of processor patches = 6
    Number of processor faces = 52
    Number of boundary faces = 136

Processor 58
    Number of cells = 68
    Number of faces shared with processor 30 = 22
    Number of faces shared with processor 31 = 1
    Number of faces shared with processor 57 = 2
    Number of faces shared with processor 59 = 2
    Number of faces shared with processor 85 = 1
    Number of faces shared with processor 86 = 22
    Number of processor patches = 6
    Number of processor faces = 50
    Number of boundary faces = 136

Processor 59
    Number of cells = 68
    Number of faces shared with processor 31 = 22
    Number of faces shared with processor 32 = 2
    Number of faces shared with processor 58 = 2
    Number of faces shared with processor 60 = 2
    Number of faces shared with processor 86 = 1
    Number of faces shared with processor 87 = 23
    Number of processor patches = 6
    Number of processor faces = 52
    Number of boundary faces = 136

Processor 60
    Number of cells = 68
    Number of faces shared with processor 32 = 22
    Number of faces shared with processor 33 = 1
    Number of faces shared with processor 59 = 2
    Number of faces shared with processor 61 = 2
    Number of faces shared with processor 87 = 1
    Number of faces shared with processor 88 = 22
    Number of processor patches = 6
    Number of processor faces = 50
    Number of boundary faces = 136

Processor 61
    Number of cells = 68
    Number of faces shared with processor 33 = 22
    Number of faces shared with processor 34 = 1
    Number of faces shared with processor 60 = 2
    Number of faces shared with processor 62 = 2
    Number of faces shared with processor 88 = 1
    Number of faces shared with processor 89 = 22
    Number of processor patches = 6
    Number of processor faces = 50
    Number of boundary faces = 136

Processor 62
    Number of cells = 68
    Number of faces shared with processor 34 = 23
    Number of faces shared with processor 35 = 1
    Number of faces shared with processor 61 = 2
    Number of faces shared with processor 63 = 2
    Number of faces shared with processor 89 = 2
    Number of faces shared with processor 90 = 22
    Number of processor patches = 6
    Number of processor faces = 52
    Number of boundary faces = 136

Processor 63
    Number of cells = 68
    Number of faces shared with processor 35 = 22
    Number of faces shared with processor 36 = 1
    Number of faces shared with processor 62 = 2
    Number of faces shared with processor 64 = 2
    Number of faces shared with processor 90 = 1
    Number of faces shared with processor 91 = 22
    Number of processor patches = 6
    Number of processor faces = 50
    Number of boundary faces = 136

Processor 64
    Number of cells = 68
    Number of faces shared with processor 36 = 23
    Number of faces shared with processor 37 = 1
    Number of faces shared with processor 63 = 2
    Number of faces shared with processor 65 = 2
    Number of faces shared with processor 91 = 1
    Number of faces shared with processor 92 = 23
    Number of processor patches = 6
    Number of processor faces = 52
    Number of boundary faces = 136

Processor 65
    Number of cells = 68
    Number of faces shared with processor 37 = 22
    Number of faces shared with processor 38 = 1
    Number of faces shared with processor 64 = 2
    Number of faces shared with processor 66 = 2
    Number of faces shared with processor 92 = 1
    Number of faces shared with processor 93 = 22
    Number of processor patches = 6
    Number of processor faces = 50
    Number of boundary faces = 136

Processor 66
    Number of cells = 68
    Number of faces shared with processor 38 = 23
    Number of faces shared with processor 39 = 1
    Number of faces shared with processor 65 = 2
    Number of faces shared with processor 67 = 2
    Number of faces shared with processor 93 = 1
    Number of faces shared with processor 94 = 23
    Number of processor patches = 6
    Number of processor faces = 52
    Number of boundary faces = 136

Processor 67
    Number of cells = 68
    Number of faces shared with processor 39 = 22
    Number of faces shared with processor 40 = 1
    Number of faces shared with processor 66 = 2
    Number of faces shared with processor 68 = 2
    Number of faces shared with processor 94 = 1
    Number of faces shared with processor 95 = 22
    Number of processor patches = 6
    Number of processor faces = 50
    Number of boundary faces = 136

Processor 68
    Number of cells = 68
    Number of faces shared with processor 40 = 23
    Number of faces shared with processor 41 = 1
    Number of faces shared with processor 67 = 2
    Number of faces shared with processor 69 = 2
    Number of faces shared with processor 95 = 1
    Number of faces shared with processor 96 = 23
    Number of processor patches = 6
    Number of processor faces = 52
    Number of boundary faces = 136

Processor 69
    Number of cells = 68
    Number of faces shared with processor 41 = 22
    Number of faces shared with processor 42 = 1
    Number of faces shared with processor 68 = 2
    Number of faces shared with processor 70 = 2
    Number of faces shared with processor 96 = 1
    Number of faces shared with processor 97 = 22
    Number of processor patches = 6
    Number of processor faces = 50
    Number of boundary faces = 136

Processor 70
    Number of cells = 68
    Number of faces shared with processor 42 = 23
    Number of faces shared with processor 43 = 1
    Number of faces shared with processor 69 = 2
    Number of faces shared with processor 71 = 2
    Number of faces shared with processor 97 = 1
    Number of faces shared with processor 98 = 23
    Number of processor patches = 6
    Number of processor faces = 52
    Number of boundary faces = 136

Processor 71
    Number of cells = 68
    Number of faces shared with processor 43 = 22
    Number of faces shared with processor 44 = 1
    Number of faces shared with processor 70 = 2
    Number of faces shared with processor 72 = 3
    Number of faces shared with processor 98 = 1
    Number of faces shared with processor 99 = 23
    Number of processor patches = 6
    Number of processor faces = 52
    Number of boundary faces = 136

Processor 72
    Number of cells = 68
    Number of faces shared with processor 44 = 23
    Number of faces shared with processor 45 = 1
    Number of faces shared with processor 71 = 3
    Number of faces shared with processor 73 = 2
    Number of faces shared with processor 99 = 1
    Number of faces shared with processor 100 = 22
    Number of processor patches = 6
    Number of processor faces = 52
    Number of boundary faces = 136

Processor 73
    Number of cells = 68
    Number of faces shared with processor 45 = 22
    Number of faces shared with processor 46 = 1
    Number of faces shared with processor 72 = 2
    Number of faces shared with processor 74 = 2
    Number of faces shared with processor 100 = 1
    Number of faces shared with processor 101 = 22
    Number of processor patches = 6
    Number of processor faces = 50
    Number of boundary faces = 136

Processor 74
    Number of cells = 68
    Number of faces shared with processor 46 = 23
    Number of faces shared with processor 47 = 1
    Number of faces shared with processor 73 = 2
    Number of faces shared with processor 75 = 2
    Number of faces shared with processor 101 = 1
    Number of faces shared with processor 102 = 23
    Number of processor patches = 6
    Number of processor faces = 52
    Number of boundary faces = 136

Processor 75
    Number of cells = 68
    Number of faces shared with processor 47 = 22
    Number of faces shared with processor 48 = 1
    Number of faces shared with processor 74 = 2
    Number of faces shared with processor 76 = 2
    Number of faces shared with processor 102 = 1
    Number of faces shared with processor 103 = 22
    Number of processor patches = 6
    Number of processor faces = 50
    Number of boundary faces = 136

Processor 76
    Number of cells = 68
    Number of faces shared with processor 48 = 23
    Number of faces shared with processor 49 = 1
    Number of faces shared with processor 75 = 2
    Number of faces shared with processor 77 = 2
    Number of faces shared with processor 103 = 1
    Number of faces shared with processor 104 = 23
    Number of processor patches = 6
    Number of processor faces = 52
    Number of boundary faces = 136

Processor 77
    Number of cells = 68
    Number of faces shared with processor 49 = 22
    Number of faces shared with processor 50 = 1
    Number of faces shared with processor 76 = 2
    Number of faces shared with processor 78 = 2
    Number of faces shared with processor 104 = 1
    Number of faces shared with processor 105 = 22
    Number of processor patches = 6
    Number of processor faces = 50
    Number of boundary faces = 136

Processor 78
    Number of cells = 68
    Number of faces shared with processor 50 = 23
    Number of faces shared with processor 51 = 1
    Number of faces shared with processor 77 = 2
    Number of faces shared with processor 79 = 2
    Number of faces shared with processor 105 = 1
    Number of faces shared with processor 106 = 23
    Number of processor patches = 6
    Number of processor faces = 52
    Number of boundary faces = 136

Processor 79
    Number of cells = 68
    Number of faces shared with processor 51 = 22
    Number of faces shared with processor 52 = 1
    Number of faces shared with processor 78 = 2
    Number of faces shared with processor 80 = 2
    Number of faces shared with processor 106 = 1
    Number of faces shared with processor 107 = 22
    Number of processor patches = 6
    Number of processor faces = 50
    Number of boundary faces = 136

Processor 80
    Number of cells = 68
    Number of faces shared with processor 52 = 23
    Number of faces shared with processor 53 = 1
    Number of faces shared with processor 79 = 2
    Number of faces shared with processor 81 = 2
    Number of faces shared with processor 107 = 1
    Number of faces shared with processor 108 = 23
    Number of processor patches = 6
    Number of processor faces = 52
    Number of boundary faces = 136

Processor 81
    Number of cells = 68
    Number of faces shared with processor 53 = 22
    Number of faces shared with processor 54 = 1
    Number of faces shared with processor 80 = 2
    Number of faces shared with processor 82 = 2
    Number of faces shared with processor 108 = 1
    Number of faces shared with processor 109 = 22
    Number of processor patches = 6
    Number of processor faces = 50
    Number of boundary faces = 136

Processor 82
    Number of cells = 68
    Number of faces shared with processor 54 = 23
    Number of faces shared with processor 55 = 1
    Number of faces shared with processor 81 = 2
    Number of faces shared with processor 83 = 2
    Number of faces shared with processor 109 = 1
    Number of faces shared with processor 110 = 23
    Number of processor patches = 6
    Number of processor faces = 52
    Number of boundary faces = 136

Processor 83
    Number of cells = 70
    Number of faces shared with processor 55 = 23
    Number of faces shared with processor 82 = 2
    Number of faces shared with processor 110 = 1
    Number of faces shared with processor 111 = 23
    Number of processor patches = 4
    Number of processor faces = 49
    Number of boundary faces = 143

Processor 84
    Number of cells = 68
    Number of faces shared with processor 56 = 22
    Number of faces shared with processor 57 = 1
    Number of faces shared with processor 85 = 2
    Number of faces shared with processor 112 = 22
    Number of processor patches = 4
    Number of processor faces = 47
    Number of boundary faces = 139

Processor 85
    Number of cells = 68
    Number of faces shared with processor 57 = 23
    Number of faces shared with processor 58 = 1
    Number of faces shared with processor 84 = 2
    Number of faces shared with processor 86 = 2
    Number of faces shared with processor 112 = 1
    Number of faces shared with processor 113 = 23
    Number of processor patches = 6
    Number of processor faces = 52
    Number of boundary faces = 136

Processor 86
    Number of cells = 68
    Number of faces shared with processor 58 = 22
    Number of faces shared with processor 59 = 1
    Number of faces shared with processor 85 = 2
    Number of faces shared with processor 87 = 2
    Number of faces shared with processor 113 = 1
    Number of faces shared with processor 114 = 22
    Number of processor patches = 6
    Number of processor faces = 50
    Number of boundary faces = 136

Processor 87
    Number of cells = 68
    Number of faces shared with processor 59 = 23
    Number of faces shared with processor 60 = 1
    Number of faces shared with processor 86 = 2
    Number of faces shared with processor 88 = 2
    Number of faces shared with processor 114 = 1
    Number of faces shared with processor 115 = 23
    Number of processor patches = 6
    Number of processor faces = 52
    Number of boundary faces = 136

Processor 88
    Number of cells = 68
    Number of faces shared with processor 60 = 22
    Number of faces shared with processor 61 = 1
    Number of faces shared with processor 87 = 2
    Number of faces shared with processor 89 = 2
    Number of faces shared with processor 115 = 1
    Number of faces shared with processor 116 = 22
    Number of processor patches = 6
    Number of processor faces = 50
    Number of boundary faces = 136

Processor 89
    Number of cells = 68
    Number of faces shared with processor 61 = 22
    Number of faces shared with processor 62 = 2
    Number of faces shared with processor 88 = 2
    Number of faces shared with processor 90 = 2
    Number of faces shared with processor 116 = 1
    Number of faces shared with processor 117 = 23
    Number of processor patches = 6
    Number of processor faces = 52
    Number of boundary faces = 136

Processor 90
    Number of cells = 68
    Number of faces shared with processor 62 = 22
    Number of faces shared with processor 63 = 1
    Number of faces shared with processor 89 = 2
    Number of faces shared with processor 91 = 2
    Number of faces shared with processor 117 = 1
    Number of faces shared with processor 118 = 22
    Number of processor patches = 6
    Number of processor faces = 50
    Number of boundary faces = 136

Processor 91
    Number of cells = 68
    Number of faces shared with processor 63 = 22
    Number of faces shared with processor 64 = 1
    Number of faces shared with processor 90 = 2
    Number of faces shared with processor 92 = 2
    Number of faces shared with processor 118 = 1
    Number of faces shared with processor 119 = 22
    Number of processor patches = 6
    Number of processor faces = 50
    Number of boundary faces = 136

Processor 92
    Number of cells = 68
    Number of faces shared with processor 64 = 23
    Number of faces shared with processor 65 = 1
    Number of faces shared with processor 91 = 2
    Number of faces shared with processor 93 = 2
    Number of faces shared with processor 119 = 2
    Number of faces shared with processor 120 = 22
    Number of processor patches = 6
    Number of processor faces = 52
    Number of boundary faces = 136

Processor 93
    Number of cells = 68
    Number of faces shared with processor 65 = 22
    Number of faces shared with processor 66 = 1
    Number of faces shared with processor 92 = 2
    Number of faces shared with processor 94 = 2
    Number of faces shared with processor 120 = 1
    Number of faces shared with processor 121 = 22
    Number of processor patches = 6
    Number of processor faces = 50
    Number of boundary faces = 136

Processor 94
    Number of cells = 68
    Number of faces shared with processor 66 = 23
    Number of faces shared with processor 67 = 1
    Number of faces shared with processor 93 = 2
    Number of faces shared with processor 95 = 2
    Number of faces shared with processor 121 = 1
    Number of faces shared with processor 122 = 23
    Number of processor patches = 6
    Number of processor faces = 52
    Number of boundary faces = 136

Processor 95
    Number of cells = 68
    Number of faces shared with processor 67 = 22
    Number of faces shared with processor 68 = 1
    Number of faces shared with processor 94 = 2
    Number of faces shared with processor 96 = 2
    Number of faces shared with processor 122 = 1
    Number of faces shared with processor 123 = 22
    Number of processor patches = 6
    Number of processor faces = 50
    Number of boundary faces = 136

Processor 96
    Number of cells = 68
    Number of faces shared with processor 68 = 23
    Number of faces shared with processor 69 = 1
    Number of faces shared with processor 95 = 2
    Number of faces shared with processor 97 = 2
    Number of faces shared with processor 123 = 1
    Number of faces shared with processor 124 = 23
    Number of processor patches = 6
    Number of processor faces = 52
    Number of boundary faces = 136

Processor 97
    Number of cells = 68
    Number of faces shared with processor 69 = 22
    Number of faces shared with processor 70 = 1
    Number of faces shared with processor 96 = 2
    Number of faces shared with processor 98 = 2
    Number of faces shared with processor 124 = 1
    Number of faces shared with processor 125 = 22
    Number of processor patches = 6
    Number of processor faces = 50
    Number of boundary faces = 136

Processor 98
    Number of cells = 68
    Number of faces shared with processor 70 = 23
    Number of faces shared with processor 71 = 1
    Number of faces shared with processor 97 = 2
    Number of faces shared with processor 99 = 2
    Number of faces shared with processor 125 = 2
    Number of faces shared with processor 126 = 22
    Number of processor patches = 6
    Number of processor faces = 52
    Number of boundary faces = 136

Processor 99
    Number of cells = 68
    Number of faces shared with processor 71 = 23
    Number of faces shared with processor 72 = 1
    Number of faces shared with processor 98 = 2
    Number of faces shared with processor 100 = 2
    Number of faces shared with processor 126 = 1
    Number of faces shared with processor 127 = 23
    Number of processor patches = 6
    Number of processor faces = 52
    Number of boundary faces = 136

Processor 100
    Number of cells = 68
    Number of faces shared with processor 128 = 22
    Number of faces shared with processor 72 = 22
    Number of faces shared with processor 73 = 1
    Number of faces shared with processor 99 = 2
    Number of faces shared with processor 101 = 2
    Number of faces shared with processor 127 = 1
    Number of processor patches = 6
    Number of processor faces = 50
    Number of boundary faces = 136

Processor 101
    Number of cells = 68
    Number of faces shared with processor 128 = 1
    Number of faces shared with processor 129 = 23
    Number of faces shared with processor 73 = 22
    Number of faces shared with processor 74 = 1
    Number of faces shared with processor 100 = 2
    Number of faces shared with processor 102 = 3
    Number of processor patches = 6
    Number of processor faces = 52
    Number of boundary faces = 136

Processor 102
    Number of cells = 68
    Number of faces shared with processor 129 = 1
    Number of faces shared with processor 130 = 22
    Number of faces shared with processor 74 = 23
    Number of faces shared with processor 75 = 1
    Number of faces shared with processor 101 = 3
    Number of faces shared with processor 103 = 2
    Number of processor patches = 6
    Number of processor faces = 52
    Number of boundary faces = 136

Processor 103
    Number of cells = 68
    Number of faces shared with processor 130 = 1
    Number of faces shared with processor 131 = 22
    Number of faces shared with processor 75 = 22
    Number of faces shared with processor 76 = 1
    Number of faces shared with processor 102 = 2
    Number of faces shared with processor 104 = 2
    Number of processor patches = 6
    Number of processor faces = 50
    Number of boundary faces = 136

Processor 104
    Number of cells = 68
    Number of faces shared with processor 131 = 1
    Number of faces shared with processor 132 = 23
    Number of faces shared with processor 76 = 23
    Number of faces shared with processor 77 = 1
    Number of faces shared with processor 103 = 2
    Number of faces shared with processor 105 = 2
    Number of processor patches = 6
    Number of processor faces = 52
    Number of boundary faces = 136

Processor 105
    Number of cells = 68
    Number of faces shared with processor 132 = 1
    Number of faces shared with processor 133 = 22
    Number of faces shared with processor 77 = 22
    Number of faces shared with processor 78 = 1
    Number of faces shared with processor 104 = 2
    Number of faces shared with processor 106 = 2
    Number of processor patches = 6
    Number of processor faces = 50
    Number of boundary faces = 136

Processor 106
    Number of cells = 68
    Number of faces shared with processor 133 = 1
    Number of faces shared with processor 134 = 23
    Number of faces shared with processor 78 = 23
    Number of faces shared with processor 79 = 1
    Number of faces shared with processor 105 = 2
    Number of faces shared with processor 107 = 2
    Number of processor patches = 6
    Number of processor faces = 52
    Number of boundary faces = 136

Processor 107
    Number of cells = 68
    Number of faces shared with processor 134 = 1
    Number of faces shared with processor 135 = 22
    Number of faces shared with processor 79 = 22
    Number of faces shared with processor 80 = 1
    Number of faces shared with processor 106 = 2
    Number of faces shared with processor 108 = 2
    Number of processor patches = 6
    Number of processor faces = 50
    Number of boundary faces = 136

Processor 108
    Number of cells = 68
    Number of faces shared with processor 135 = 1
    Number of faces shared with processor 136 = 23
    Number of faces shared with processor 80 = 23
    Number of faces shared with processor 81 = 1
    Number of faces shared with processor 107 = 2
    Number of faces shared with processor 109 = 2
    Number of processor patches = 6
    Number of processor faces = 52
    Number of boundary faces = 136

Processor 109
    Number of cells = 68
    Number of faces shared with processor 136 = 1
    Number of faces shared with processor 137 = 22
    Number of faces shared with processor 81 = 22
    Number of faces shared with processor 82 = 1
    Number of faces shared with processor 108 = 2
    Number of faces shared with processor 110 = 2
    Number of processor patches = 6
    Number of processor faces = 50
    Number of boundary faces = 136

Processor 110
    Number of cells = 68
    Number of faces shared with processor 137 = 1
    Number of faces shared with processor 138 = 23
    Number of faces shared with processor 82 = 23
    Number of faces shared with processor 83 = 1
    Number of faces shared with processor 109 = 2
    Number of faces shared with processor 111 = 2
    Number of processor patches = 6
    Number of processor faces = 52
    Number of boundary faces = 136

Processor 111
    Number of cells = 70
    Number of faces shared with processor 138 = 1
    Number of faces shared with processor 139 = 23
    Number of faces shared with processor 83 = 23
    Number of faces shared with processor 110 = 2
    Number of processor patches = 4
    Number of processor faces = 49
    Number of boundary faces = 143

Processor 112
    Number of cells = 68
    Number of faces shared with processor 140 = 22
    Number of faces shared with processor 84 = 22
    Number of faces shared with processor 85 = 1
    Number of faces shared with processor 113 = 3
    Number of processor patches = 4
    Number of processor faces = 48
    Number of boundary faces = 140

Processor 113
    Number of cells = 68
    Number of faces shared with processor 141 = 23
    Number of faces shared with processor 85 = 23
    Number of faces shared with processor 86 = 1
    Number of faces shared with processor 112 = 3
    Number of faces shared with processor 114 = 2
    Number of processor patches = 5
    Number of processor faces = 52
    Number of boundary faces = 136

Processor 114
    Number of cells = 68
    Number of faces shared with processor 141 = 2
    Number of faces shared with processor 142 = 22
    Number of faces shared with processor 86 = 22
    Number of faces shared with processor 87 = 1
    Number of faces shared with processor 113 = 2
    Number of faces shared with processor 115 = 3
    Number of processor patches = 6
    Number of processor faces = 52
    Number of boundary faces = 136

Processor 115
    Number of cells = 68
    Number of faces shared with processor 143 = 23
    Number of faces shared with processor 87 = 23
    Number of faces shared with processor 88 = 1
    Number of faces shared with processor 114 = 3
    Number of faces shared with processor 116 = 2
    Number of processor patches = 5
    Number of processor faces = 52
    Number of boundary faces = 136

Processor 116
    Number of cells = 68
    Number of faces shared with processor 143 = 1
    Number of faces shared with processor 144 = 22
    Number of faces shared with processor 88 = 22
    Number of faces shared with processor 89 = 1
    Number of faces shared with processor 115 = 2
    Number of faces shared with processor 117 = 2
    Number of processor patches = 6
    Number of processor faces = 50
    Number of boundary faces = 136

Processor 117
    Number of cells = 68
    Number of faces shared with processor 144 = 1
    Number of faces shared with processor 145 = 23
    Number of faces shared with processor 89 = 23
    Number of faces shared with processor 90 = 1
    Number of faces shared with processor 116 = 2
    Number of faces shared with processor 118 = 2
    Number of processor patches = 6
    Number of processor faces = 52
    Number of boundary faces = 136

Processor 118
    Number of cells = 68
    Number of faces shared with processor 145 = 1
    Number of faces shared with processor 146 = 22
    Number of faces shared with processor 90 = 22
    Number of faces shared with processor 91 = 1
    Number of faces shared with processor 117 = 2
    Number of faces shared with processor 119 = 2
    Number of processor patches = 6
    Number of processor faces = 50
    Number of boundary faces = 136

Processor 119
    Number of cells = 68
    Number of faces shared with processor 146 = 1
    Number of faces shared with processor 147 = 22
    Number of faces shared with processor 91 = 22
    Number of faces shared with processor 92 = 2
    Number of faces shared with processor 118 = 2
    Number of faces shared with processor 120 = 3
    Number of processor patches = 6
    Number of processor faces = 52
    Number of boundary faces = 136

Processor 120
    Number of cells = 68
    Number of faces shared with processor 148 = 22
    Number of faces shared with processor 92 = 22
    Number of faces shared with processor 93 = 1
    Number of faces shared with processor 119 = 3
    Number of faces shared with processor 121 = 2
    Number of processor patches = 5
    Number of processor faces = 50
    Number of boundary faces = 136

Processor 121
    Number of cells = 68
    Number of faces shared with processor 148 = 2
    Number of faces shared with processor 149 = 23
    Number of faces shared with processor 93 = 22
    Number of faces shared with processor 94 = 1
    Number of faces shared with processor 120 = 2
    Number of faces shared with processor 122 = 4
    Number of processor patches = 6
    Number of processor faces = 54
    Number of boundary faces = 136

Processor 122
    Number of cells = 68
    Number of faces shared with processor 150 = 22
    Number of faces shared with processor 94 = 23
    Number of faces shared with processor 95 = 1
    Number of faces shared with processor 121 = 4
    Number of faces shared with processor 123 = 2
    Number of processor patches = 5
    Number of processor faces = 52
    Number of boundary faces = 136

Processor 123
    Number of cells = 68
    Number of faces shared with processor 150 = 2
    Number of faces shared with processor 151 = 22
    Number of faces shared with processor 95 = 22
    Number of faces shared with processor 96 = 1
    Number of faces shared with processor 122 = 2
    Number of faces shared with processor 124 = 3
    Number of processor patches = 6
    Number of processor faces = 52
    Number of boundary faces = 136

Processor 124
    Number of cells = 68
    Number of faces shared with processor 152 = 23
    Number of faces shared with processor 96 = 23
    Number of faces shared with processor 97 = 1
    Number of faces shared with processor 123 = 3
    Number of faces shared with processor 125 = 2
    Number of processor patches = 5
    Number of processor faces = 52
    Number of boundary faces = 136

Processor 125
    Number of cells = 68
    Number of faces shared with processor 152 = 2
    Number of faces shared with processor 153 = 23
    Number of faces shared with processor 97 = 22
    Number of faces shared with processor 98 = 2
    Number of faces shared with processor 124 = 2
    Number of faces shared with processor 126 = 3
    Number of processor patches = 6
    Number of processor faces = 54
    Number of boundary faces = 136

Processor 126
    Number of cells = 68
    Number of faces shared with processor 154 = 22
    Number of faces shared with processor 98 = 22
    Number of faces shared with processor 99 = 1
    Number of faces shared with processor 125 = 3
    Number of faces shared with processor 127 = 2
    Number of processor patches = 5
    Number of processor faces = 50
    Number of boundary faces = 136

Processor 127
    Number of cells = 68
    Number of faces shared with processor 128 = 2
    Number of faces shared with processor 154 = 1
    Number of faces shared with processor 155 = 23
    Number of faces shared with processor 99 = 23
    Number of faces shared with processor 100 = 1
    Number of faces shared with processor 126 = 2
    Number of processor patches = 6
    Number of processor faces = 52
    Number of boundary faces = 136

Processor 128
    Number of cells = 68
    Number of faces shared with processor 129 = 2
    Number of faces shared with processor 155 = 1
    Number of faces shared with processor 156 = 22
    Number of faces shared with processor 100 = 22
    Number of faces shared with processor 101 = 1
    Number of faces shared with processor 127 = 2
    Number of processor patches = 6
    Number of processor faces = 50
    Number of boundary faces = 136

Processor 129
    Number of cells = 68
    Number of faces shared with processor 128 = 2
    Number of faces shared with processor 130 = 2
    Number of faces shared with processor 156 = 1
    Number of faces shared with processor 157 = 23
    Number of faces shared with processor 101 = 23
    Number of faces shared with processor 102 = 1
    Number of processor patches = 6
    Number of processor faces = 52
    Number of boundary faces = 136

Processor 130
    Number of cells = 68
    Number of faces shared with processor 129 = 2
    Number of faces shared with processor 131 = 2
    Number of faces shared with processor 157 = 1
    Number of faces shared with processor 158 = 22
    Number of faces shared with processor 102 = 22
    Number of faces shared with processor 103 = 1
    Number of processor patches = 6
    Number of processor faces = 50
    Number of boundary faces = 136

Processor 131
    Number of cells = 68
    Number of faces shared with processor 130 = 2
    Number of faces shared with processor 132 = 4
    Number of faces shared with processor 158 = 2
    Number of faces shared with processor 159 = 23
    Number of faces shared with processor 103 = 22
    Number of faces shared with processor 104 = 1
    Number of processor patches = 6
    Number of processor faces = 54
    Number of boundary faces = 136

Processor 132
    Number of cells = 68
    Number of faces shared with processor 131 = 4
    Number of faces shared with processor 133 = 2
    Number of faces shared with processor 160 = 22
    Number of faces shared with processor 104 = 23
    Number of faces shared with processor 105 = 1
    Number of processor patches = 5
    Number of processor faces = 52
    Number of boundary faces = 136

Processor 133
    Number of cells = 68
    Number of faces shared with processor 132 = 2
    Number of faces shared with processor 134 = 3
    Number of faces shared with processor 160 = 2
    Number of faces shared with processor 161 = 22
    Number of faces shared with processor 105 = 22
    Number of faces shared with processor 106 = 1
    Number of processor patches = 6
    Number of processor faces = 52
    Number of boundary faces = 136

Processor 134
    Number of cells = 68
    Number of faces shared with processor 133 = 3
    Number of faces shared with processor 135 = 2
    Number of faces shared with processor 162 = 23
    Number of faces shared with processor 106 = 23
    Number of faces shared with processor 107 = 1
    Number of processor patches = 5
    Number of processor faces = 52
    Number of boundary faces = 136

Processor 135
    Number of cells = 68
    Number of faces shared with processor 134 = 2
    Number of faces shared with processor 136 = 3
    Number of faces shared with processor 162 = 2
    Number of faces shared with processor 163 = 22
    Number of faces shared with processor 107 = 22
    Number of faces shared with processor 108 = 1
    Number of processor patches = 6
    Number of processor faces = 52
    Number of boundary faces = 136

Processor 136
    Number of cells = 68
    Number of faces shared with processor 135 = 3
    Number of faces shared with processor 137 = 2
    Number of faces shared with processor 164 = 23
    Number of faces shared with processor 108 = 23
    Number of faces shared with processor 109 = 1
    Number of processor patches = 5
    Number of processor faces = 52
    Number of boundary faces = 136

Processor 137
    Number of cells = 68
    Number of faces shared with processor 136 = 2
    Number of faces shared with processor 138 = 3
    Number of faces shared with processor 164 = 2
    Number of faces shared with processor 165 = 22
    Number of faces shared with processor 109 = 22
    Number of faces shared with processor 110 = 1
    Number of processor patches = 6
    Number of processor faces = 52
    Number of boundary faces = 136

Processor 138
    Number of cells = 68
    Number of faces shared with processor 137 = 3
    Number of faces shared with processor 139 = 2
    Number of faces shared with processor 166 = 23
    Number of faces shared with processor 110 = 23
    Number of faces shared with processor 111 = 1
    Number of processor patches = 5
    Number of processor faces = 52
    Number of boundary faces = 136

Processor 139
    Number of cells = 70
    Number of faces shared with processor 138 = 2
    Number of faces shared with processor 166 = 1
    Number of faces shared with processor 167 = 23
    Number of faces shared with processor 111 = 23
    Number of processor patches = 4
    Number of processor faces = 49
    Number of boundary faces = 143

Processor 140
    Number of cells = 68
    Number of faces shared with processor 141 = 3
    Number of faces shared with processor 168 = 22
    Number of faces shared with processor 112 = 22
    Number of processor patches = 3
    Number of processor faces = 47
    Number of boundary faces = 139

Processor 141
    Number of cells = 68
    Number of faces shared with processor 140 = 3
    Number of faces shared with processor 142 = 1
    Number of faces shared with processor 169 = 23
    Number of faces shared with processor 113 = 23
    Number of faces shared with processor 114 = 2
    Number of processor patches = 5
    Number of processor faces = 52
    Number of boundary faces = 136

Processor 142
    Number of cells = 68
    Number of faces shared with processor 141 = 1
    Number of faces shared with processor 143 = 3
    Number of faces shared with processor 169 = 2
    Number of faces shared with processor 170 = 22
    Number of faces shared with processor 114 = 22
    Number of processor patches = 5
    Number of processor faces = 50
    Number of boundary faces = 136

Processor 143
    Number of cells = 68
    Number of faces shared with processor 142 = 3
    Number of faces shared with processor 144 = 2
    Number of faces shared with processor 171 = 23
    Number of faces shared with processor 115 = 23
    Number of faces shared with processor 116 = 1
    Number of processor patches = 5
    Number of processor faces = 52
    Number of boundary faces = 136

Processor 144
    Number of cells = 68
    Number of faces shared with processor 143 = 2
    Number of faces shared with processor 145 = 3
    Number of faces shared with processor 171 = 2
    Number of faces shared with processor 172 = 22
    Number of faces shared with processor 116 = 22
    Number of faces shared with processor 117 = 1
    Number of processor patches = 6
    Number of processor faces = 52
    Number of boundary faces = 136

Processor 145
    Number of cells = 68
    Number of faces shared with processor 144 = 3
    Number of faces shared with processor 146 = 2
    Number of faces shared with processor 173 = 23
    Number of faces shared with processor 117 = 23
    Number of faces shared with processor 118 = 1
    Number of processor patches = 5
    Number of processor faces = 52
    Number of boundary faces = 136

Processor 146
    Number of cells = 68
    Number of faces shared with processor 145 = 2
    Number of faces shared with processor 147 = 3
    Number of faces shared with processor 173 = 1
    Number of faces shared with processor 174 = 21
    Number of faces shared with processor 118 = 22
    Number of faces shared with processor 119 = 1
    Number of processor patches = 6
    Number of processor faces = 50
    Number of boundary faces = 136

Processor 147
    Number of cells = 68
    Number of faces shared with processor 146 = 3
    Number of faces shared with processor 148 = 3
    Number of faces shared with processor 174 = 1
    Number of faces shared with processor 175 = 23
    Number of faces shared with processor 119 = 22
    Number of processor patches = 5
    Number of processor faces = 52
    Number of boundary faces = 136

Processor 148
    Number of cells = 68
    Number of faces shared with processor 147 = 3
    Number of faces shared with processor 149 = 1
    Number of faces shared with processor 176 = 22
    Number of faces shared with processor 120 = 22
    Number of faces shared with processor 121 = 2
    Number of processor patches = 5
    Number of processor faces = 50
    Number of boundary faces = 136

Processor 149
    Number of cells = 68
    Number of faces shared with processor 148 = 1
    Number of faces shared with processor 150 = 3
    Number of faces shared with processor 176 = 2
    Number of faces shared with processor 177 = 23
    Number of faces shared with processor 121 = 23
    Number of processor patches = 5
    Number of processor faces = 52
    Number of boundary faces = 136

Processor 150
    Number of cells = 68
    Number of faces shared with processor 149 = 3
    Number of faces shared with processor 151 = 1
    Number of faces shared with processor 178 = 22
    Number of faces shared with processor 122 = 22
    Number of faces shared with processor 123 = 2
    Number of processor patches = 5
    Number of processor faces = 50
    Number of boundary faces = 136

Processor 151
    Number of cells = 68
    Number of faces shared with processor 150 = 1
    Number of faces shared with processor 152 = 4
    Number of faces shared with processor 178 = 2
    Number of faces shared with processor 179 = 23
    Number of faces shared with processor 123 = 22
    Number of processor patches = 5
    Number of processor faces = 52
    Number of boundary faces = 136

Processor 152
    Number of cells = 68
    Number of faces shared with processor 151 = 4
    Number of faces shared with processor 153 = 1
    Number of faces shared with processor 180 = 22
    Number of faces shared with processor 124 = 23
    Number of faces shared with processor 125 = 2
    Number of processor patches = 5
    Number of processor faces = 52
    Number of boundary faces = 136

Processor 153
    Number of cells = 68
    Number of faces shared with processor 152 = 1
    Number of faces shared with processor 154 = 3
    Number of faces shared with processor 180 = 2
    Number of faces shared with processor 181 = 23
    Number of faces shared with processor 125 = 23
    Number of processor patches = 5
    Number of processor faces = 52
    Number of boundary faces = 136

Processor 154
    Number of cells = 68
    Number of faces shared with processor 153 = 3
    Number of faces shared with processor 155 = 2
    Number of faces shared with processor 182 = 22
    Number of faces shared with processor 126 = 22
    Number of faces shared with processor 127 = 1
    Number of processor patches = 5
    Number of processor faces = 50
    Number of boundary faces = 136

Processor 155
    Number of cells = 68
    Number of faces shared with processor 128 = 1
    Number of faces shared with processor 154 = 2
    Number of faces shared with processor 156 = 2
    Number of faces shared with processor 182 = 1
    Number of faces shared with processor 183 = 23
    Number of faces shared with processor 127 = 23
    Number of processor patches = 6
    Number of processor faces = 52
    Number of boundary faces = 136

Processor 156
    Number of cells = 68
    Number of faces shared with processor 128 = 22
    Number of faces shared with processor 129 = 1
    Number of faces shared with processor 155 = 2
    Number of faces shared with processor 157 = 3
    Number of faces shared with processor 183 = 2
    Number of faces shared with processor 184 = 22
    Number of processor patches = 6
    Number of processor faces = 52
    Number of boundary faces = 136

Processor 157
    Number of cells = 68
    Number of faces shared with processor 129 = 23
    Number of faces shared with processor 130 = 1
    Number of faces shared with processor 156 = 3
    Number of faces shared with processor 158 = 3
    Number of faces shared with processor 184 = 1
    Number of faces shared with processor 185 = 23
    Number of processor patches = 6
    Number of processor faces = 54
    Number of boundary faces = 136

Processor 158
    Number of cells = 68
    Number of faces shared with processor 130 = 22
    Number of faces shared with processor 131 = 2
    Number of faces shared with processor 157 = 3
    Number of faces shared with processor 159 = 1
    Number of faces shared with processor 186 = 22
    Number of processor patches = 5
    Number of processor faces = 50
    Number of boundary faces = 136

Processor 159
    Number of cells = 68
    Number of faces shared with processor 131 = 23
    Number of faces shared with processor 158 = 1
    Number of faces shared with processor 160 = 3
    Number of faces shared with processor 186 = 2
    Number of faces shared with processor 187 = 23
    Number of processor patches = 5
    Number of processor faces = 52
    Number of boundary faces = 136

Processor 160
    Number of cells = 68
    Number of faces shared with processor 132 = 22
    Number of faces shared with processor 133 = 2
    Number of faces shared with processor 159 = 3
    Number of faces shared with processor 161 = 1
    Number of faces shared with processor 188 = 22
    Number of processor patches = 5
    Number of processor faces = 50
    Number of boundary faces = 136

Processor 161
    Number of cells = 68
    Number of faces shared with processor 133 = 22
    Number of faces shared with processor 160 = 1
    Number of faces shared with processor 162 = 4
    Number of faces shared with processor 188 = 2
    Number of faces shared with processor 189 = 23
    Number of processor patches = 5
    Number of processor faces = 52
    Number of boundary faces = 136

Processor 162
    Number of cells = 68
    Number of faces shared with processor 134 = 23
    Number of faces shared with processor 135 = 2
    Number of faces shared with processor 161 = 4
    Number of faces shared with processor 163 = 1
    Number of faces shared with processor 190 = 22
    Number of processor patches = 5
    Number of processor faces = 52
    Number of boundary faces = 136

Processor 163
    Number of cells = 68
    Number of faces shared with processor 135 = 22
    Number of faces shared with processor 162 = 1
    Number of faces shared with processor 164 = 3
    Number of faces shared with processor 190 = 2
    Number of faces shared with processor 191 = 22
    Number of processor patches = 5
    Number of processor faces = 50
    Number of boundary faces = 136

Processor 164
    Number of cells = 68
    Number of faces shared with processor 136 = 23
    Number of faces shared with processor 137 = 2
    Number of faces shared with processor 163 = 3
    Number of faces shared with processor 165 = 1
    Number of faces shared with processor 192 = 23
    Number of processor patches = 5
    Number of processor faces = 52
    Number of boundary faces = 136

Processor 165
    Number of cells = 68
    Number of faces shared with processor 137 = 22
    Number of faces shared with processor 164 = 1
    Number of faces shared with processor 166 = 3
    Number of faces shared with processor 192 = 2
    Number of faces shared with processor 193 = 22
    Number of processor patches = 5
    Number of processor faces = 50
    Number of boundary faces = 136

Processor 166
    Number of cells = 68
    Number of faces shared with processor 138 = 23
    Number of faces shared with processor 139 = 1
    Number of faces shared with processor 165 = 3
    Number of faces shared with processor 167 = 2
    Number of faces shared with processor 194 = 23
    Number of processor patches = 5
    Number of processor faces = 52
    Number of boundary faces = 136

Processor 167
    Number of cells = 70
    Number of faces shared with processor 139 = 23
    Number of faces shared with processor 166 = 2
    Number of faces shared with processor 194 = 2
    Number of faces shared with processor 195 = 23
    Number of processor patches = 4
    Number of processor faces = 50
    Number of boundary faces = 144

Processor 168
    Number of cells = 68
    Number of faces shared with processor 140 = 22
    Number of faces shared with processor 169 = 3
    Number of faces shared with processor 196 = 22
    Number of processor patches = 3
    Number of processor faces = 47
    Number of boundary faces = 139

Processor 169
    Number of cells = 68
    Number of faces shared with processor 141 = 23
    Number of faces shared with processor 142 = 2
    Number of faces shared with processor 168 = 3
    Number of faces shared with processor 170 = 1
    Number of faces shared with processor 197 = 23
    Number of processor patches = 5
    Number of processor faces = 52
    Number of boundary faces = 136

Processor 170
    Number of cells = 68
    Number of faces shared with processor 142 = 22
    Number of faces shared with processor 169 = 1
    Number of faces shared with processor 171 = 3
    Number of faces shared with processor 197 = 2
    Number of faces shared with processor 198 = 22
    Number of processor patches = 5
    Number of processor faces = 50
    Number of boundary faces = 136

Processor 171
    Number of cells = 68
    Number of faces shared with processor 143 = 23
    Number of faces shared with processor 144 = 2
    Number of faces shared with processor 170 = 3
    Number of faces shared with processor 172 = 1
    Number of faces shared with processor 199 = 23
    Number of processor patches = 5
    Number of processor faces = 52
    Number of boundary faces = 136

Processor 172
    Number of cells = 68
    Number of faces shared with processor 144 = 22
    Number of faces shared with processor 171 = 1
    Number of faces shared with processor 173 = 3
    Number of faces shared with processor 199 = 2
    Number of faces shared with processor 200 = 22
    Number of processor patches = 5
    Number of processor faces = 50
    Number of boundary faces = 136

Processor 173
    Number of cells = 68
    Number of faces shared with processor 145 = 23
    Number of faces shared with processor 146 = 1
    Number of faces shared with processor 172 = 3
    Number of faces shared with processor 174 = 3
    Number of faces shared with processor 200 = 1
    Number of faces shared with processor 201 = 23
    Number of processor patches = 6
    Number of processor faces = 54
    Number of boundary faces = 136

Processor 174
    Number of cells = 68
    Number of faces shared with processor 146 = 21
    Number of faces shared with processor 147 = 1
    Number of faces shared with processor 173 = 3
    Number of faces shared with processor 175 = 2
    Number of faces shared with processor 201 = 1
    Number of faces shared with processor 202 = 22
    Number of processor patches = 6
    Number of processor faces = 50
    Number of boundary faces = 136

Processor 175
    Number of cells = 68
    Number of faces shared with processor 147 = 23
    Number of faces shared with processor 174 = 2
    Number of faces shared with processor 176 = 3
    Number of faces shared with processor 202 = 1
    Number of faces shared with processor 203 = 23
    Number of processor patches = 5
    Number of processor faces = 52
    Number of boundary faces = 136

Processor 176
    Number of cells = 68
    Number of faces shared with processor 148 = 22
    Number of faces shared with processor 149 = 2
    Number of faces shared with processor 175 = 3
    Number of faces shared with processor 177 = 2
    Number of faces shared with processor 203 = 1
    Number of faces shared with processor 204 = 22
    Number of processor patches = 6
    Number of processor faces = 52
    Number of boundary faces = 136

Processor 177
    Number of cells = 68
    Number of faces shared with processor 149 = 23
    Number of faces shared with processor 176 = 2
    Number of faces shared with processor 178 = 3
    Number of faces shared with processor 204 = 1
    Number of faces shared with processor 205 = 23
    Number of processor patches = 5
    Number of processor faces = 52
    Number of boundary faces = 136

Processor 178
    Number of cells = 68
    Number of faces shared with processor 150 = 22
    Number of faces shared with processor 151 = 2
    Number of faces shared with processor 177 = 3
    Number of faces shared with processor 179 = 1
    Number of faces shared with processor 206 = 22
    Number of processor patches = 5
    Number of processor faces = 50
    Number of boundary faces = 136

Processor 179
    Number of cells = 68
    Number of faces shared with processor 151 = 23
    Number of faces shared with processor 178 = 1
    Number of faces shared with processor 180 = 3
    Number of faces shared with processor 206 = 2
    Number of faces shared with processor 207 = 23
    Number of processor patches = 5
    Number of processor faces = 52
    Number of boundary faces = 136

Processor 180
    Number of cells = 68
    Number of faces shared with processor 152 = 22
    Number of faces shared with processor 153 = 2
    Number of faces shared with processor 179 = 3
    Number of faces shared with processor 181 = 1
    Number of faces shared with processor 208 = 22
    Number of processor patches = 5
    Number of processor faces = 50
    Number of boundary faces = 136

Processor 181
    Number of cells = 68
    Number of faces shared with processor 153 = 23
    Number of faces shared with processor 180 = 1
    Number of faces shared with processor 182 = 3
    Number of faces shared with processor 208 = 2
    Number of faces shared with processor 209 = 23
    Number of processor patches = 5
    Number of processor faces = 52
    Number of boundary faces = 136

Processor 182
    Number of cells = 68
    Number of faces shared with processor 154 = 22
    Number of faces shared with processor 155 = 1
    Number of faces shared with processor 181 = 3
    Number of faces shared with processor 183 = 3
    Number of faces shared with processor 209 = 1
    Number of faces shared with processor 210 = 22
    Number of processor patches = 6
    Number of processor faces = 52
    Number of boundary faces = 136

Processor 183
    Number of cells = 68
    Number of faces shared with processor 155 = 23
    Number of faces shared with processor 156 = 2
    Number of faces shared with processor 182 = 3
    Number of faces shared with processor 184 = 2
    Number of faces shared with processor 211 = 22
    Number of processor patches = 5
    Number of processor faces = 52
    Number of boundary faces = 136

Processor 184
    Number of cells = 68
    Number of faces shared with processor 156 = 22
    Number of faces shared with processor 157 = 1
    Number of faces shared with processor 183 = 2
    Number of faces shared with processor 185 = 2
    Number of faces shared with processor 211 = 1
    Number of faces shared with processor 212 = 22
    Number of processor patches = 6
    Number of processor faces = 50
    Number of boundary faces = 136

Processor 185
    Number of cells = 68
    Number of faces shared with processor 157 = 23
    Number of faces shared with processor 184 = 2
    Number of faces shared with processor 186 = 3
    Number of faces shared with processor 212 = 1
    Number of faces shared with processor 213 = 23
    Number of processor patches = 5
    Number of processor faces = 52
    Number of boundary faces = 136

Processor 186
    Number of cells = 68
    Number of faces shared with processor 158 = 22
    Number of faces shared with processor 159 = 2
    Number of faces shared with processor 185 = 3
    Number of faces shared with processor 187 = 2
    Number of faces shared with processor 213 = 1
    Number of faces shared with processor 214 = 22
    Number of processor patches = 6
    Number of processor faces = 52
    Number of boundary faces = 136

Processor 187
    Number of cells = 68
    Number of faces shared with processor 159 = 23
    Number of faces shared with processor 186 = 2
    Number of faces shared with processor 188 = 3
    Number of faces shared with processor 214 = 1
    Number of faces shared with processor 215 = 23
    Number of processor patches = 5
    Number of processor faces = 52
    Number of boundary faces = 136

Processor 188
    Number of cells = 68
    Number of faces shared with processor 160 = 22
    Number of faces shared with processor 161 = 2
    Number of faces shared with processor 187 = 3
    Number of faces shared with processor 189 = 2
    Number of faces shared with processor 216 = 21
    Number of processor patches = 5
    Number of processor faces = 50
    Number of boundary faces = 136

Processor 189
    Number of cells = 68
    Number of faces shared with processor 161 = 23
    Number of faces shared with processor 188 = 2
    Number of faces shared with processor 190 = 3
    Number of faces shared with processor 216 = 1
    Number of faces shared with processor 217 = 23
    Number of processor patches = 5
    Number of processor faces = 52
    Number of boundary faces = 136

Processor 190
    Number of cells = 68
    Number of faces shared with processor 162 = 22
    Number of faces shared with processor 163 = 2
    Number of faces shared with processor 189 = 3
    Number of faces shared with processor 191 = 1
    Number of faces shared with processor 218 = 22
    Number of processor patches = 5
    Number of processor faces = 50
    Number of boundary faces = 136

Processor 191
    Number of cells = 68
[...]
    Number of processor faces = 30
    Number of boundary faces = 172

Processor 429
    Number of cells = 75
    Number of faces shared with processor 401 = 22
    Number of faces shared with processor 402 = 1
    Number of faces shared with processor 428 = 3
    Number of faces shared with processor 430 = 3
    Number of processor patches = 4
    Number of processor faces = 29
    Number of boundary faces = 171

Processor 430
    Number of cells = 75
    Number of faces shared with processor 402 = 23
    Number of faces shared with processor 403 = 1
    Number of faces shared with processor 429 = 3
    Number of faces shared with processor 431 = 3
    Number of processor patches = 4
    Number of processor faces = 30
    Number of boundary faces = 172

Processor 431
    Number of cells = 75
    Number of faces shared with processor 403 = 22
    Number of faces shared with processor 404 = 1
    Number of faces shared with processor 430 = 3
    Number of faces shared with processor 432 = 3
    Number of processor patches = 4
    Number of processor faces = 29
    Number of boundary faces = 171

Processor 432
    Number of cells = 75
    Number of faces shared with processor 404 = 23
    Number of faces shared with processor 405 = 1
    Number of faces shared with processor 431 = 3
    Number of faces shared with processor 433 = 3
    Number of processor patches = 4
    Number of processor faces = 30
    Number of boundary faces = 172

Processor 433
    Number of cells = 75
    Number of faces shared with processor 405 = 21
    Number of faces shared with processor 432 = 3
    Number of processor patches = 2
    Number of processor faces = 24
    Number of boundary faces = 174

Processor 434
    Number of cells = 75
    Number of faces shared with processor 406 = 22
    Number of faces shared with processor 407 = 1
    Number of faces shared with processor 435 = 3
    Number of processor patches = 3
    Number of processor faces = 26
    Number of boundary faces = 174

Processor 435
    Number of cells = 75
    Number of faces shared with processor 407 = 22
    Number of faces shared with processor 408 = 1
    Number of faces shared with processor 434 = 3
    Number of faces shared with processor 436 = 3
    Number of processor patches = 4
    Number of processor faces = 29
    Number of boundary faces = 171

Processor 436
    Number of cells = 75
    Number of faces shared with processor 408 = 23
    Number of faces shared with processor 409 = 1
    Number of faces shared with processor 435 = 3
    Number of faces shared with processor 437 = 3
    Number of processor patches = 4
    Number of processor faces = 30
    Number of boundary faces = 172

Processor 437
    Number of cells = 75
    Number of faces shared with processor 409 = 22
    Number of faces shared with processor 410 = 1
    Number of faces shared with processor 436 = 3
    Number of faces shared with processor 438 = 3
    Number of processor patches = 4
    Number of processor faces = 29
    Number of boundary faces = 171

Processor 438
    Number of cells = 75
    Number of faces shared with processor 410 = 23
    Number of faces shared with processor 411 = 1
    Number of faces shared with processor 437 = 3
    Number of faces shared with processor 439 = 3
    Number of processor patches = 4
    Number of processor faces = 30
    Number of boundary faces = 172

Processor 439
    Number of cells = 75
    Number of faces shared with processor 411 = 22
    Number of faces shared with processor 412 = 1
    Number of faces shared with processor 438 = 3
    Number of faces shared with processor 440 = 3
    Number of processor patches = 4
    Number of processor faces = 29
    Number of boundary faces = 171

Processor 440
    Number of cells = 75
    Number of faces shared with processor 412 = 23
    Number of faces shared with processor 413 = 1
    Number of faces shared with processor 439 = 3
    Number of faces shared with processor 441 = 3
    Number of processor patches = 4
    Number of processor faces = 30
    Number of boundary faces = 172

Processor 441
    Number of cells = 75
    Number of faces shared with processor 413 = 22
    Number of faces shared with processor 414 = 1
    Number of faces shared with processor 440 = 3
    Number of faces shared with processor 442 = 3
    Number of processor patches = 4
    Number of processor faces = 29
    Number of boundary faces = 171

Processor 442
    Number of cells = 75
    Number of faces shared with processor 414 = 23
    Number of faces shared with processor 415 = 1
    Number of faces shared with processor 441 = 3
    Number of faces shared with processor 443 = 3
    Number of processor patches = 4
    Number of processor faces = 30
    Number of boundary faces = 172

Processor 443
    Number of cells = 75
    Number of faces shared with processor 415 = 22
    Number of faces shared with processor 416 = 1
    Number of faces shared with processor 442 = 3
    Number of faces shared with processor 444 = 3
    Number of processor patches = 4
    Number of processor faces = 29
    Number of boundary faces = 171

Processor 444
    Number of cells = 75
    Number of faces shared with processor 416 = 22
    Number of faces shared with processor 417 = 2
    Number of faces shared with processor 443 = 3
    Number of faces shared with processor 445 = 3
    Number of processor patches = 4
    Number of processor faces = 30
    Number of boundary faces = 172

Processor 445
    Number of cells = 75
    Number of faces shared with processor 417 = 22
    Number of faces shared with processor 418 = 1
    Number of faces shared with processor 444 = 3
    Number of faces shared with processor 446 = 3
    Number of processor patches = 4
    Number of processor faces = 29
    Number of boundary faces = 171

Processor 446
    Number of cells = 75
    Number of faces shared with processor 418 = 22
    Number of faces shared with processor 419 = 1
    Number of faces shared with processor 445 = 3
    Number of faces shared with processor 447 = 4
    Number of processor patches = 4
    Number of processor faces = 30
    Number of boundary faces = 172

Processor 447
    Number of cells = 71
    Number of faces shared with processor 419 = 23
    Number of faces shared with processor 446 = 4
    Number of processor patches = 2
    Number of processor faces = 27
    Number of boundary faces = 167

Number of processor faces = 10818
Max number of cells = 75 (9.49619% above average 68.4955)
Max number of processor patches = 6 (13.7056% above average 5.27679)
Max number of faces between processors = 54 (11.8136% above average 48.2946)

Time = 0

Processor 0: field transfer
Processor 1: field transfer
Processor 2: field transfer
Processor 3: field transfer
Processor 4: field transfer
Processor 5: field transfer
Processor 6: field transfer
Processor 7: field transfer
Processor 8: field transfer
Processor 9: field transfer
Processor 10: field transfer
Processor 11: field transfer
Processor 12: field transfer
Processor 13: field transfer
Processor 14: field transfer
Processor 15: field transfer
Processor 16: field transfer
Processor 17: field transfer
Processor 18: field transfer
Processor 19: field transfer
Processor 20: field transfer
Processor 21: field transfer
Processor 22: field transfer
Processor 23: field transfer
Processor 24: field transfer
Processor 25: field transfer
Processor 26: field transfer
Processor 27: field transfer
Processor 28: field transfer
Processor 29: field transfer
Processor 30: field transfer
Processor 31: field transfer
Processor 32: field transfer
Processor 33: field transfer
Processor 34: field transfer
Processor 35: field transfer
Processor 36: field transfer
Processor 37: field transfer
Processor 38: field transfer
Processor 39: field transfer
Processor 40: field transfer
Processor 41: field transfer
Processor 42: field transfer
Processor 43: field transfer
Processor 44: field transfer
Processor 45: field transfer
Processor 46: field transfer
Processor 47: field transfer
Processor 48: field transfer
Processor 49: field transfer
Processor 50: field transfer
Processor 51: field transfer
Processor 52: field transfer
Processor 53: field transfer
Processor 54: field transfer
Processor 55: field transfer
Processor 56: field transfer
Processor 57: field transfer
Processor 58: field transfer
Processor 59: field transfer
Processor 60: field transfer
Processor 61: field transfer
Processor 62: field transfer
Processor 63: field transfer
Processor 64: field transfer
Processor 65: field transfer
Processor 66: field transfer
Processor 67: field transfer
Processor 68: field transfer
Processor 69: field transfer
Processor 70: field transfer
Processor 71: field transfer
Processor 72: field transfer
Processor 73: field transfer
Processor 74: field transfer
Processor 75: field transfer
Processor 76: field transfer
Processor 77: field transfer
Processor 78: field transfer
Processor 79: field transfer
Processor 80: field transfer
Processor 81: field transfer
Processor 82: field transfer
Processor 83: field transfer
Processor 84: field transfer
Processor 85: field transfer
Processor 86: field transfer
Processor 87: field transfer
Processor 88: field transfer
Processor 89: field transfer
Processor 90: field transfer
Processor 91: field transfer
Processor 92: field transfer
Processor 93: field transfer
Processor 94: field transfer
Processor 95: field transfer
Processor 96: field transfer
Processor 97: field transfer
Processor 98: field transfer
Processor 99: field transfer
Processor 100: field transfer
Processor 101: field transfer
Processor 102: field transfer
Processor 103: field transfer
Processor 104: field transfer
Processor 105: field transfer
Processor 106: field transfer
Processor 107: field transfer
Processor 108: field transfer
Processor 109: field transfer
Processor 110: field transfer
Processor 111: field transfer
Processor 112: field transfer
Processor 113: field transfer
Processor 114: field transfer
Processor 115: field transfer
Processor 116: field transfer
Processor 117: field transfer
Processor 118: field transfer
Processor 119: field transfer
Processor 120: field transfer
Processor 121: field transfer
Processor 122: field transfer
Processor 123: field transfer
Processor 124: field transfer
Processor 125: field transfer
Processor 126: field transfer
Processor 127: field transfer
Processor 128: field transfer
Processor 129: field transfer
Processor 130: field transfer
Processor 131: field transfer
Processor 132: field transfer
Processor 133: field transfer
Processor 134: field transfer
Processor 135: field transfer
Processor 136: field transfer
Processor 137: field transfer
Processor 138: field transfer
Processor 139: field transfer
Processor 140: field transfer
Processor 141: field transfer
Processor 142: field transfer
Processor 143: field transfer
Processor 144: field transfer
Processor 145: field transfer
Processor 146: field transfer
Processor 147: field transfer
Processor 148: field transfer
Processor 149: field transfer
Processor 150: field transfer
Processor 151: field transfer
Processor 152: field transfer
Processor 153: field transfer
Processor 154: field transfer
Processor 155: field transfer
Processor 156: field transfer
Processor 157: field transfer
Processor 158: field transfer
Processor 159: field transfer
Processor 160: field transfer
Processor 161: field transfer
Processor 162: field transfer
Processor 163: field transfer
Processor 164: field transfer
Processor 165: field transfer
Processor 166: field transfer
Processor 167: field transfer
Processor 168: field transfer
Processor 169: field transfer
Processor 170: field transfer
Processor 171: field transfer
Processor 172: field transfer
Processor 173: field transfer
Processor 174: field transfer
Processor 175: field transfer
Processor 176: field transfer
Processor 177: field transfer
Processor 178: field transfer
Processor 179: field transfer
Processor 180: field transfer
Processor 181: field transfer
Processor 182: field transfer
Processor 183: field transfer
Processor 184: field transfer
Processor 185: field transfer
Processor 186: field transfer
Processor 187: field transfer
Processor 188: field transfer
Processor 189: field transfer
Processor 190: field transfer
Processor 191: field transfer
Processor 192: field transfer
Processor 193: field transfer
Processor 194: field transfer
Processor 195: field transfer
Processor 196: field transfer
Processor 197: field transfer
Processor 198: field transfer
Processor 199: field transfer
Processor 200: field transfer
Processor 201: field transfer
Processor 202: field transfer
Processor 203: field transfer
Processor 204: field transfer
Processor 205: field transfer
Processor 206: field transfer
Processor 207: field transfer
Processor 208: field transfer
Processor 209: field transfer
Processor 210: field transfer
Processor 211: field transfer
Processor 212: field transfer
Processor 213: field transfer
Processor 214: field transfer
Processor 215: field transfer
Processor 216: field transfer
Processor 217: field transfer
Processor 218: field transfer
Processor 219: field transfer
Processor 220: field transfer
Processor 221: field transfer
Processor 222: field transfer
Processor 223: field transfer
Processor 224: field transfer
Processor 225: field transfer
Processor 226: field transfer
Processor 227: field transfer
Processor 228: field transfer
Processor 229: field transfer
Processor 230: field transfer
Processor 231: field transfer
Processor 232: field transfer
Processor 233: field transfer
Processor 234: field transfer
Processor 235: field transfer
Processor 236: field transfer
Processor 237: field transfer
Processor 238: field transfer
Processor 239: field transfer
Processor 240: field transfer
Processor 241: field transfer
Processor 242: field transfer
Processor 243: field transfer
Processor 244: field transfer
Processor 245: field transfer
Processor 246: field transfer
Processor 247: field transfer
Processor 248: field transfer
Processor 249: field transfer
Processor 250: field transfer
Processor 251: field transfer
Processor 252: field transfer
Processor 253: field transfer
Processor 254: field transfer
Processor 255: field transfer
Processor 256: field transfer
Processor 257: field transfer
Processor 258: field transfer
Processor 259: field transfer
Processor 260: field transfer
Processor 261: field transfer
Processor 262: field transfer
Processor 263: field transfer
Processor 264: field transfer
Processor 265: field transfer
Processor 266: field transfer
Processor 267: field transfer
Processor 268: field transfer
Processor 269: field transfer
Processor 270: field transfer
Processor 271: field transfer
Processor 272: field transfer
Processor 273: field transfer
Processor 274: field transfer
Processor 275: field transfer
Processor 276: field transfer
Processor 277: field transfer
Processor 278: field transfer
Processor 279: field transfer
Processor 280: field transfer
Processor 281: field transfer
Processor 282: field transfer
Processor 283: field transfer
Processor 284: field transfer
Processor 285: field transfer
Processor 286: field transfer
Processor 287: field transfer
Processor 288: field transfer
Processor 289: field transfer
Processor 290: field transfer
Processor 291: field transfer
Processor 292: field transfer
Processor 293: field transfer
Processor 294: field transfer
Processor 295: field transfer
Processor 296: field transfer
Processor 297: field transfer
Processor 298: field transfer
Processor 299: field transfer
Processor 300: field transfer
Processor 301: field transfer
Processor 302: field transfer
Processor 303: field transfer
Processor 304: field transfer
Processor 305: field transfer
Processor 306: field transfer
Processor 307: field transfer
Processor 308: field transfer
Processor 309: field transfer
Processor 310: field transfer
Processor 311: field transfer
Processor 312: field transfer
Processor 313: field transfer
Processor 314: field transfer
Processor 315: field transfer
Processor 316: field transfer
Processor 317: field transfer
Processor 318: field transfer
Processor 319: field transfer
Processor 320: field transfer
Processor 321: field transfer
Processor 322: field transfer
Processor 323: field transfer
Processor 324: field transfer
Processor 325: field transfer
Processor 326: field transfer
Processor 327: field transfer
Processor 328: field transfer
Processor 329: field transfer
Processor 330: field transfer
Processor 331: field transfer
Processor 332: field transfer
Processor 333: field transfer
Processor 334: field transfer
Processor 335: field transfer
Processor 336: field transfer
Processor 337: field transfer
Processor 338: field transfer
Processor 339: field transfer
Processor 340: field transfer
Processor 341: field transfer
Processor 342: field transfer
Processor 343: field transfer
Processor 344: field transfer
Processor 345: field transfer
Processor 346: field transfer
Processor 347: field transfer
Processor 348: field transfer
Processor 349: field transfer
Processor 350: field transfer
Processor 351: field transfer
Processor 352: field transfer
Processor 353: field transfer
Processor 354: field transfer
Processor 355: field transfer
Processor 356: field transfer
Processor 357: field transfer
Processor 358: field transfer
Processor 359: field transfer
Processor 360: field transfer
Processor 361: field transfer
Processor 362: field transfer
Processor 363: field transfer
Processor 364: field transfer
Processor 365: field transfer
Processor 366: field transfer
Processor 367: field transfer
Processor 368: field transfer
Processor 369: field transfer
Processor 370: field transfer
Processor 371: field transfer
Processor 372: field transfer
Processor 373: field transfer
Processor 374: field transfer
Processor 375: field transfer
Processor 376: field transfer
Processor 377: field transfer
Processor 378: field transfer
Processor 379: field transfer
Processor 380: field transfer
Processor 381: field transfer
Processor 382: field transfer
Processor 383: field transfer
Processor 384: field transfer
Processor 385: field transfer
Processor 386: field transfer
Processor 387: field transfer
Processor 388: field transfer
Processor 389: field transfer
Processor 390: field transfer
Processor 391: field transfer
Processor 392: field transfer
Processor 393: field transfer
Processor 394: field transfer
Processor 395: field transfer
Processor 396: field transfer
Processor 397: field transfer
Processor 398: field transfer
Processor 399: field transfer
Processor 400: field transfer
Processor 401: field transfer
Processor 402: field transfer
Processor 403: field transfer
Processor 404: field transfer
Processor 405: field transfer
Processor 406: field transfer
Processor 407: field transfer
Processor 408: field transfer
Processor 409: field transfer
Processor 410: field transfer
Processor 411: field transfer
Processor 412: field transfer
Processor 413: field transfer
Processor 414: field transfer
Processor 415: field transfer
Processor 416: field transfer
Processor 417: field transfer
Processor 418: field transfer
Processor 419: field transfer
Processor 420: field transfer
Processor 421: field transfer
Processor 422: field transfer
Processor 423: field transfer
Processor 424: field transfer
Processor 425: field transfer
Processor 426: field transfer
Processor 427: field transfer
Processor 428: field transfer
Processor 429: field transfer
Processor 430: field transfer
Processor 431: field transfer
Processor 432: field transfer
Processor 433: field transfer
Processor 434: field transfer
Processor 435: field transfer
Processor 436: field transfer
Processor 437: field transfer
Processor 438: field transfer
Processor 439: field transfer
Processor 440: field transfer
Processor 441: field transfer
Processor 442: field transfer
Processor 443: field transfer
Processor 444: field transfer
Processor 445: field transfer
Processor 446: field transfer
Processor 447: field transfer

End

